<?xml version="1.0" encoding="UTF-8"?>

<!-- generated on Sat Sep  5 16:48:21 2020 by Eclipse SUMO duarouter Version 1.6.0
<configuration xmlns:xsi="http://www.w3.org/2001/XMLSchema-instance" xsi:noNamespaceSchemaLocation="http://sumo.dlr.de/xsd/duarouterConfiguration.xsd">

    <input>
        <net-file value="../dataset_public/mixed_loop/roundabout_merge_a/map.net.xml"/>
        <route-files value="/tmp/tmpbii7rvc1/trips.trips.xml"/>
    </input>

    <output>
        <output-file value="../dataset_public/mixed_loop/roundabout_merge_a/traffic/30_patient_car.rou.xml"/>
        <alternatives-output value="../dataset_public/mixed_loop/roundabout_merge_a/traffic/30_patient_car.rou.alt.xml"/>
    </output>

    <processing>
        <unsorted-input value="true"/>
        <repair value="true"/>
    </processing>

    <report>
        <error-log value="/tmp/smarts/_duarouter_routing/traffic/30_patient_car.log"/>
        <no-step-log value="true"/>
    </report>

    <random_number>
        <seed value="42"/>
    </random_number>

</configuration>
-->

<routes xmlns:xsi="http://www.w3.org/2001/XMLSchema-instance" xsi:noNamespaceSchemaLocation="http://sumo.dlr.de/xsd/routes_file.xsd">
    <vType id="actor-car-1088233565522790137" minGap="2.50" speedFactor="normc(0.50,0.20,0.20,2.00)" vClass="passenger" impatience="0.50" lcCooperative="0.5" lcImpatience="0" jmDriveAfterYellowTime="1.0" accel="2.6" decel="4.5" sigma="0.5"/>
    <vehicle id="-flow-random-route-0cde6c1e-56a8-40cf-a715-9c96770e2b5b-1886388836559839282-21-0.0" type="actor-car-1088233565522790137" depart="0.00" departLane="0" departPos="63.78" departSpeed="max" arrivalLane="0" arrivalPos="39.79">
        <route edges="gneE71 edge-west-WS edge-south-SE edge-east-EN edge-north-NW edge-west-WS gneE60 gneE60.110 gneE61 gneE62"/>
    </vehicle>
    <vehicle id="-flow-random-route-0d70688c-88e0-449a-adb7-da5711f78eb3-1886388836559839282-12-0.0" type="actor-car-1088233565522790137" depart="0.00" departLane="0" departPos="3.27" departSpeed="max" arrivalLane="0" arrivalPos="41.39">
        <route edges="gneE80 edge-east-EN edge-north-NW edge-west-WS gneE60 gneE60.110 gneE61 gneE62 gneE69 gneE71"/>
    </vehicle>
    <vehicle id="-flow-random-route-113af98b-4de4-4051-bcd8-b452401b6d35-1886388836559839282-13-0.0" type="actor-car-1088233565522790137" depart="0.00" departLane="0" departPos="1.17" departSpeed="max" arrivalLane="0" arrivalPos="16.29">
        <route edges="gneE61 gneE62 gneE78 gneE81 gneE60.110 gneE61 gneE62 gneE69 gneE71 edge-west-WS"/>
    </vehicle>
    <vehicle id="-flow-random-route-1309c975-0218-4ec8-ac58-615bbda927a2-1886388836559839282-18-0.0" type="actor-car-1088233565522790137" depart="0.00" departLane="0" departPos="3.31" departSpeed="max" arrivalLane="0" arrivalPos="70.01">
        <route edges="gneE69 gneE71 edge-west-WS"/>
    </vehicle>
    <vehicle id="-flow-random-route-1c46fd3d-83f5-4661-9c96-794a04176c37-1886388836559839282-25-0.0" type="actor-car-1088233565522790137" depart="0.00" departLane="1" departPos="13.59" departSpeed="max" arrivalLane="0" arrivalPos="46.89">
        <route edges="edge-east-EN edge-north-NW edge-west-WS"/>
    </vehicle>
    <vehicle id="-flow-random-route-1c7a0637-1893-4a85-8bcf-0c1f0dfa83c8-1886388836559839282-16-0.0" type="actor-car-1088233565522790137" depart="0.00" departLane="0" departPos="9.90" departSpeed="max" arrivalLane="1" arrivalPos="15.45">
        <route edges="gneE60.110 gneE61 gneE62 gneE78 gneE78.64 gneE80 edge-east-EN edge-north-NW edge-west-WS gneE60"/>
    </vehicle>
    <vehicle id="-flow-random-route-2964ae5c-bb93-46c3-a70b-b9cc6079c048-1886388836559839282-4-0.0" type="actor-car-1088233565522790137" depart="0.00" departLane="0" departPos="30.31" departSpeed="max" arrivalLane="1" arrivalPos="12.71">
        <route edges="gneE78 gneE78.64 gneE80 edge-east-EN edge-north-NW edge-west-WS"/>
    </vehicle>
    <vehicle id="-flow-random-route-30c793e3-caea-4515-b0ec-0c8165f4bd13-1886388836559839282-0-0.0" type="actor-car-1088233565522790137" depart="0.00" departLane="1" departPos="3.56" departSpeed="max" arrivalLane="1" arrivalPos="60.25">
        <route edges="gneE80 edge-east-EN edge-north-NW edge-west-WS gneE60 gneE60.110 gneE61 gneE62 gneE78 gneE81"/>
    </vehicle>
    <vehicle id="-flow-random-route-372b7c01-e51d-4c2e-a7d6-3b58bdcd3b2d-1886388836559839282-1-0.0" type="actor-car-1088233565522790137" depart="0.00" departLane="0" departPos="55.69" departSpeed="max" arrivalLane="0" arrivalPos="90.96">
        <route edges="gneE60 gneE60.110 gneE61"/>
    </vehicle>
    <vehicle id="-flow-random-route-3a43c3d3-7f3e-44c9-ad3b-c7eb92952ef0-1886388836559839282-20-0.0" type="actor-car-1088233565522790137" depart="0.00" departLane="0" departPos="62.36" departSpeed="max" arrivalLane="1" arrivalPos="71.78">
        <route edges="gneE61 gneE62 gneE69"/>
    </vehicle>
    <vehicle id="-flow-random-route-3f77afce-510e-4f56-b7aa-abd63b596712-1886388836559839282-3-0.0" type="actor-car-1088233565522790137" depart="0.00" departLane="0" departPos="30.78" departSpeed="max" arrivalLane="0" arrivalPos="31.12">
        <route edges="gneE61 gneE62 gneE69 gneE71 edge-west-WS edge-south-SE"/>
    </vehicle>
    <vehicle id="-flow-random-route-52afdf9e-f474-443e-96fb-201520839d29-1886388836559839282-23-0.0" type="actor-car-1088233565522790137" depart="0.00" departLane="1" departPos="93.57" departSpeed="max" arrivalLane="0" arrivalPos="3.26">
        <route edges="gneE61 gneE62 gneE78 gneE81 gneE60.110 gneE61 gneE62 gneE69 gneE71 edge-west-WS"/>
    </vehicle>
    <vehicle id="-flow-random-route-6103e790-7cd3-41d7-9105-1500fde5cafa-1886388836559839282-2-0.0" type="actor-car-1088233565522790137" depart="0.00" departLane="1" departPos="82.06" departSpeed="max" arrivalLane="1" arrivalPos="33.00">
        <route edges="gneE69 gneE71 edge-west-WS edge-south-SE edge-east-EN edge-north-NW edge-west-WS gneE60 gneE60.110 gneE61"/>
    </vehicle>
    <vehicle id="-flow-random-route-64f49de8-04ff-491a-9685-77389d441619-1886388836559839282-24-0.0" type="actor-car-1088233565522790137" depart="0.00" departLane="1" departPos="14.91" departSpeed="max" arrivalLane="1" arrivalPos="77.33">
        <route edges="edge-west-WS edge-south-SE edge-east-EN edge-north-NW edge-west-WS edge-south-SE edge-east-EN edge-north-NW edge-west-WS gneE60"/>
    </vehicle>
    <vehicle id="-flow-random-route-78b78fe5-a590-4174-a9bd-40061812352c-1886388836559839282-19-0.0" type="actor-car-1088233565522790137" depart="0.00" departLane="1" departPos="49.46" departSpeed="max" arrivalLane="0" arrivalPos="11.60">
        <route edges="gneE61 gneE62 gneE78 gneE78.64 gneE80 edge-east-EN edge-north-NW edge-west-WS gneE60 gneE60.110"/>
    </vehicle>
    <vehicle id="-flow-random-route-8534884e-6b4f-441f-9253-909d355f2743-1886388836559839282-9-0.0" type="actor-car-1088233565522790137" depart="0.00" departLane="1" departPos="131.86" departSpeed="max" arrivalLane="0" arrivalPos="24.29">
        <route edges="gneE69 gneE71 edge-west-WS edge-south-SE edge-east-EN edge-north-NW"/>
    </vehicle>
    <vehicle id="-flow-random-route-870d3cae-f30e-4e32-a456-710558257c42-1886388836559839282-6-0.0" type="actor-car-1088233565522790137" depart="0.00" departLane="0" departPos="13.06" departSpeed="max" arrivalLane="1" arrivalPos="20.19">
        <route edges="edge-south-SE edge-east-EN edge-north-NW edge-west-WS gneE60 gneE60.110 gneE61 gneE62 gneE69 gneE71"/>
    </vehicle>
    <vehicle id="-flow-random-route-924cee08-ce83-4049-ac0d-9a9640cfb710-1886388836559839282-7-0.0" type="actor-car-1088233565522790137" depart="0.00" departLane="0" departPos="101.18" departSpeed="max" arrivalLane="1" arrivalPos="3.53">
        <route edges="gneE78.64 gneE80 edge-east-EN edge-north-NW edge-west-WS gneE60 gneE60.110 gneE61 gneE62 gneE78"/>
    </vehicle>
    <vehicle id="-flow-random-route-93011270-2178-4986-bd28-2cece821b46e-1886388836559839282-5-0.0" type="actor-car-1088233565522790137" depart="0.00" departLane="1" departPos="94.83" departSpeed="max" arrivalLane="1" arrivalPos="14.46">
        <route edges="gneE78.64 gneE80 edge-east-EN edge-north-NW edge-west-WS edge-south-SE"/>
    </vehicle>
    <vehicle id="-flow-random-route-9742ebaf-8fbf-4dce-a185-84215b1afcbc-1886388836559839282-22-0.0" type="actor-car-1088233565522790137" depart="0.00" departLane="1" departPos="42.04" departSpeed="max" arrivalLane="1" arrivalPos="26.39">
        <route edges="edge-north-NW edge-west-WS gneE60"/>
    </vehicle>
    <vehicle id="-flow-random-route-a8ae0a07-8fd7-4080-85d7-151db0d42837-1886388836559839282-14-0.0" type="actor-car-1088233565522790137" depart="0.00" departLane="0" departPos="30.38" departSpeed="max" arrivalLane="0" arrivalPos="43.00">
        <route edges="gneE62 gneE78 gneE78.64 gneE80 edge-east-EN edge-north-NW"/>
    </vehicle>
    <vehicle id="-flow-random-route-adacfe41-aa9c-4aa0-be67-98964461c1f6-1886388836559839282-17-0.0" type="actor-car-1088233565522790137" depart="0.00" departLane="1" departPos="35.74" departSpeed="max" arrivalLane="1" arrivalPos="63.88">
        <route edges="edge-north-NW edge-west-WS"/>
    </vehicle>
    <vehicle id="-flow-random-route-c24cffd4-3c9d-4ff2-bf92-25b53e82771a-1886388836559839282-8-0.0" type="actor-car-1088233565522790137" depart="0.00" departLane="0" departPos="52.41" departSpeed="max" arrivalLane="1" arrivalPos="40.72">
        <route edges="edge-west-WS gneE60 gneE60.110"/>
    </vehicle>
    <vehicle id="-flow-random-route-c26639d2-c92d-4be0-b5fc-730a69616418-1886388836559839282-28-0.0" type="actor-car-1088233565522790137" depart="0.00" departLane="0" departPos="66.09" departSpeed="max" arrivalLane="0" arrivalPos="37.10">
        <route edges="edge-west-WS gneE60 gneE60.110"/>
    </vehicle>
    <vehicle id="-flow-random-route-d31cef84-5246-44f5-b575-d9411e948db6-1886388836559839282-29-0.0" type="actor-car-1088233565522790137" depart="0.00" departLane="0" departPos="22.02" departSpeed="max" arrivalLane="1" arrivalPos="8.41">
        <route edges="gneE78 gneE81 gneE60.110"/>
    </vehicle>
    <vehicle id="-flow-random-route-d3ae524d-9fe9-480f-b402-a5571b07fb24-1886388836559839282-27-0.0" type="actor-car-1088233565522790137" depart="0.00" departLane="0" departPos="28.40" departSpeed="max" arrivalLane="1" arrivalPos="28.54">
        <route edges="gneE78 gneE78.64 gneE80 edge-east-EN edge-north-NW edge-west-WS"/>
    </vehicle>
    <vehicle id="-flow-random-route-edb938b9-c472-47da-af61-368af91d473f-1886388836559839282-10-0.0" type="actor-car-1088233565522790137" depart="0.00" departLane="0" departPos="73.53" departSpeed="max" arrivalLane="0" arrivalPos="12.51">
        <route edges="gneE71 edge-west-WS"/>
    </vehicle>
    <vehicle id="-flow-random-route-edbcd5e2-490a-494c-aa4e-3bc10e3815d9-1886388836559839282-15-0.0" type="actor-car-1088233565522790137" depart="0.00" departLane="1" departPos="33.08" departSpeed="max" arrivalLane="1" arrivalPos="74.45">
        <route edges="edge-west-WS edge-south-SE edge-east-EN edge-north-NW edge-west-WS edge-south-SE edge-east-EN edge-north-NW edge-west-WS gneE60"/>
    </vehicle>
    <vehicle id="-flow-random-route-f69574e5-6abd-4d6e-97ff-a6da1b973bc6-1886388836559839282-26-0.0" type="actor-car-1088233565522790137" depart="0.00" departLane="1" departPos="12.36" departSpeed="max" arrivalLane="1" arrivalPos="32.63">
        <route edges="gneE71 edge-west-WS gneE60 gneE60.110 gneE61 gneE62 gneE78 gneE78.64 gneE80 edge-east-EN"/>
    </vehicle>
    <vehicle id="-flow-random-route-fb9d63ee-040e-4fde-9edd-144ca961f8d4-1886388836559839282-11-0.0" type="actor-car-1088233565522790137" depart="0.00" departLane="0" departPos="78.10" departSpeed="max" arrivalLane="0" arrivalPos="70.54">
        <route edges="gneE60 gneE60.110 gneE61 gneE62 gneE78 gneE81 gneE60.110 gneE61 gneE62 gneE69"/>
    </vehicle>
    <vehicle id="-flow-random-route-0cde6c1e-56a8-40cf-a715-9c96770e2b5b-1886388836559839282-21-0.1" type="actor-car-1088233565522790137" depart="120.00" departLane="0" departPos="63.78" departSpeed="max" arrivalLane="0" arrivalPos="39.79">
        <route edges="gneE71 edge-west-WS edge-south-SE edge-east-EN edge-north-NW edge-west-WS gneE60 gneE60.110 gneE61 gneE62"/>
    </vehicle>
    <vehicle id="-flow-random-route-0d70688c-88e0-449a-adb7-da5711f78eb3-1886388836559839282-12-0.1" type="actor-car-1088233565522790137" depart="120.00" departLane="0" departPos="3.27" departSpeed="max" arrivalLane="0" arrivalPos="41.39">
        <route edges="gneE80 edge-east-EN edge-north-NW edge-west-WS gneE60 gneE60.110 gneE61 gneE62 gneE69 gneE71"/>
    </vehicle>
    <vehicle id="-flow-random-route-113af98b-4de4-4051-bcd8-b452401b6d35-1886388836559839282-13-0.1" type="actor-car-1088233565522790137" depart="120.00" departLane="0" departPos="1.17" departSpeed="max" arrivalLane="0" arrivalPos="16.29">
        <route edges="gneE61 gneE62 gneE78 gneE81 gneE60.110 gneE61 gneE62 gneE69 gneE71 edge-west-WS"/>
    </vehicle>
    <vehicle id="-flow-random-route-1309c975-0218-4ec8-ac58-615bbda927a2-1886388836559839282-18-0.1" type="actor-car-1088233565522790137" depart="120.00" departLane="0" departPos="3.31" departSpeed="max" arrivalLane="0" arrivalPos="70.01">
        <route edges="gneE69 gneE71 edge-west-WS"/>
    </vehicle>
    <vehicle id="-flow-random-route-1c46fd3d-83f5-4661-9c96-794a04176c37-1886388836559839282-25-0.1" type="actor-car-1088233565522790137" depart="120.00" departLane="1" departPos="13.59" departSpeed="max" arrivalLane="0" arrivalPos="46.89">
        <route edges="edge-east-EN edge-north-NW edge-west-WS"/>
    </vehicle>
    <vehicle id="-flow-random-route-1c7a0637-1893-4a85-8bcf-0c1f0dfa83c8-1886388836559839282-16-0.1" type="actor-car-1088233565522790137" depart="120.00" departLane="0" departPos="9.90" departSpeed="max" arrivalLane="1" arrivalPos="15.45">
        <route edges="gneE60.110 gneE61 gneE62 gneE78 gneE78.64 gneE80 edge-east-EN edge-north-NW edge-west-WS gneE60"/>
    </vehicle>
    <vehicle id="-flow-random-route-2964ae5c-bb93-46c3-a70b-b9cc6079c048-1886388836559839282-4-0.1" type="actor-car-1088233565522790137" depart="120.00" departLane="0" departPos="30.31" departSpeed="max" arrivalLane="1" arrivalPos="12.71">
        <route edges="gneE78 gneE78.64 gneE80 edge-east-EN edge-north-NW edge-west-WS"/>
    </vehicle>
    <vehicle id="-flow-random-route-30c793e3-caea-4515-b0ec-0c8165f4bd13-1886388836559839282-0-0.1" type="actor-car-1088233565522790137" depart="120.00" departLane="1" departPos="3.56" departSpeed="max" arrivalLane="1" arrivalPos="60.25">
        <route edges="gneE80 edge-east-EN edge-north-NW edge-west-WS gneE60 gneE60.110 gneE61 gneE62 gneE78 gneE81"/>
    </vehicle>
    <vehicle id="-flow-random-route-372b7c01-e51d-4c2e-a7d6-3b58bdcd3b2d-1886388836559839282-1-0.1" type="actor-car-1088233565522790137" depart="120.00" departLane="0" departPos="55.69" departSpeed="max" arrivalLane="0" arrivalPos="90.96">
        <route edges="gneE60 gneE60.110 gneE61"/>
    </vehicle>
    <vehicle id="-flow-random-route-3a43c3d3-7f3e-44c9-ad3b-c7eb92952ef0-1886388836559839282-20-0.1" type="actor-car-1088233565522790137" depart="120.00" departLane="0" departPos="62.36" departSpeed="max" arrivalLane="1" arrivalPos="71.78">
        <route edges="gneE61 gneE62 gneE69"/>
    </vehicle>
    <vehicle id="-flow-random-route-3f77afce-510e-4f56-b7aa-abd63b596712-1886388836559839282-3-0.1" type="actor-car-1088233565522790137" depart="120.00" departLane="0" departPos="30.78" departSpeed="max" arrivalLane="0" arrivalPos="31.12">
        <route edges="gneE61 gneE62 gneE69 gneE71 edge-west-WS edge-south-SE"/>
    </vehicle>
    <vehicle id="-flow-random-route-52afdf9e-f474-443e-96fb-201520839d29-1886388836559839282-23-0.1" type="actor-car-1088233565522790137" depart="120.00" departLane="1" departPos="93.57" departSpeed="max" arrivalLane="0" arrivalPos="3.26">
        <route edges="gneE61 gneE62 gneE78 gneE81 gneE60.110 gneE61 gneE62 gneE69 gneE71 edge-west-WS"/>
    </vehicle>
    <vehicle id="-flow-random-route-6103e790-7cd3-41d7-9105-1500fde5cafa-1886388836559839282-2-0.1" type="actor-car-1088233565522790137" depart="120.00" departLane="1" departPos="82.06" departSpeed="max" arrivalLane="1" arrivalPos="33.00">
        <route edges="gneE69 gneE71 edge-west-WS edge-south-SE edge-east-EN edge-north-NW edge-west-WS gneE60 gneE60.110 gneE61"/>
    </vehicle>
    <vehicle id="-flow-random-route-64f49de8-04ff-491a-9685-77389d441619-1886388836559839282-24-0.1" type="actor-car-1088233565522790137" depart="120.00" departLane="1" departPos="14.91" departSpeed="max" arrivalLane="1" arrivalPos="77.33">
        <route edges="edge-west-WS edge-south-SE edge-east-EN edge-north-NW edge-west-WS edge-south-SE edge-east-EN edge-north-NW edge-west-WS gneE60"/>
    </vehicle>
    <vehicle id="-flow-random-route-78b78fe5-a590-4174-a9bd-40061812352c-1886388836559839282-19-0.1" type="actor-car-1088233565522790137" depart="120.00" departLane="1" departPos="49.46" departSpeed="max" arrivalLane="0" arrivalPos="11.60">
        <route edges="gneE61 gneE62 gneE78 gneE78.64 gneE80 edge-east-EN edge-north-NW edge-west-WS gneE60 gneE60.110"/>
    </vehicle>
    <vehicle id="-flow-random-route-8534884e-6b4f-441f-9253-909d355f2743-1886388836559839282-9-0.1" type="actor-car-1088233565522790137" depart="120.00" departLane="1" departPos="131.86" departSpeed="max" arrivalLane="0" arrivalPos="24.29">
        <route edges="gneE69 gneE71 edge-west-WS edge-south-SE edge-east-EN edge-north-NW"/>
    </vehicle>
    <vehicle id="-flow-random-route-870d3cae-f30e-4e32-a456-710558257c42-1886388836559839282-6-0.1" type="actor-car-1088233565522790137" depart="120.00" departLane="0" departPos="13.06" departSpeed="max" arrivalLane="1" arrivalPos="20.19">
        <route edges="edge-south-SE edge-east-EN edge-north-NW edge-west-WS gneE60 gneE60.110 gneE61 gneE62 gneE69 gneE71"/>
    </vehicle>
    <vehicle id="-flow-random-route-924cee08-ce83-4049-ac0d-9a9640cfb710-1886388836559839282-7-0.1" type="actor-car-1088233565522790137" depart="120.00" departLane="0" departPos="101.18" departSpeed="max" arrivalLane="1" arrivalPos="3.53">
        <route edges="gneE78.64 gneE80 edge-east-EN edge-north-NW edge-west-WS gneE60 gneE60.110 gneE61 gneE62 gneE78"/>
    </vehicle>
    <vehicle id="-flow-random-route-93011270-2178-4986-bd28-2cece821b46e-1886388836559839282-5-0.1" type="actor-car-1088233565522790137" depart="120.00" departLane="1" departPos="94.83" departSpeed="max" arrivalLane="1" arrivalPos="14.46">
        <route edges="gneE78.64 gneE80 edge-east-EN edge-north-NW edge-west-WS edge-south-SE"/>
    </vehicle>
    <vehicle id="-flow-random-route-9742ebaf-8fbf-4dce-a185-84215b1afcbc-1886388836559839282-22-0.1" type="actor-car-1088233565522790137" depart="120.00" departLane="1" departPos="42.04" departSpeed="max" arrivalLane="1" arrivalPos="26.39">
        <route edges="edge-north-NW edge-west-WS gneE60"/>
    </vehicle>
    <vehicle id="-flow-random-route-a8ae0a07-8fd7-4080-85d7-151db0d42837-1886388836559839282-14-0.1" type="actor-car-1088233565522790137" depart="120.00" departLane="0" departPos="30.38" departSpeed="max" arrivalLane="0" arrivalPos="43.00">
        <route edges="gneE62 gneE78 gneE78.64 gneE80 edge-east-EN edge-north-NW"/>
    </vehicle>
    <vehicle id="-flow-random-route-adacfe41-aa9c-4aa0-be67-98964461c1f6-1886388836559839282-17-0.1" type="actor-car-1088233565522790137" depart="120.00" departLane="1" departPos="35.74" departSpeed="max" arrivalLane="1" arrivalPos="63.88">
        <route edges="edge-north-NW edge-west-WS"/>
    </vehicle>
    <vehicle id="-flow-random-route-c24cffd4-3c9d-4ff2-bf92-25b53e82771a-1886388836559839282-8-0.1" type="actor-car-1088233565522790137" depart="120.00" departLane="0" departPos="52.41" departSpeed="max" arrivalLane="1" arrivalPos="40.72">
        <route edges="edge-west-WS gneE60 gneE60.110"/>
    </vehicle>
    <vehicle id="-flow-random-route-c26639d2-c92d-4be0-b5fc-730a69616418-1886388836559839282-28-0.1" type="actor-car-1088233565522790137" depart="120.00" departLane="0" departPos="66.09" departSpeed="max" arrivalLane="0" arrivalPos="37.10">
        <route edges="edge-west-WS gneE60 gneE60.110"/>
    </vehicle>
    <vehicle id="-flow-random-route-d31cef84-5246-44f5-b575-d9411e948db6-1886388836559839282-29-0.1" type="actor-car-1088233565522790137" depart="120.00" departLane="0" departPos="22.02" departSpeed="max" arrivalLane="1" arrivalPos="8.41">
        <route edges="gneE78 gneE81 gneE60.110"/>
    </vehicle>
    <vehicle id="-flow-random-route-d3ae524d-9fe9-480f-b402-a5571b07fb24-1886388836559839282-27-0.1" type="actor-car-1088233565522790137" depart="120.00" departLane="0" departPos="28.40" departSpeed="max" arrivalLane="1" arrivalPos="28.54">
        <route edges="gneE78 gneE78.64 gneE80 edge-east-EN edge-north-NW edge-west-WS"/>
    </vehicle>
    <vehicle id="-flow-random-route-edb938b9-c472-47da-af61-368af91d473f-1886388836559839282-10-0.1" type="actor-car-1088233565522790137" depart="120.00" departLane="0" departPos="73.53" departSpeed="max" arrivalLane="0" arrivalPos="12.51">
        <route edges="gneE71 edge-west-WS"/>
    </vehicle>
    <vehicle id="-flow-random-route-edbcd5e2-490a-494c-aa4e-3bc10e3815d9-1886388836559839282-15-0.1" type="actor-car-1088233565522790137" depart="120.00" departLane="1" departPos="33.08" departSpeed="max" arrivalLane="1" arrivalPos="74.45">
        <route edges="edge-west-WS edge-south-SE edge-east-EN edge-north-NW edge-west-WS edge-south-SE edge-east-EN edge-north-NW edge-west-WS gneE60"/>
    </vehicle>
    <vehicle id="-flow-random-route-f69574e5-6abd-4d6e-97ff-a6da1b973bc6-1886388836559839282-26-0.1" type="actor-car-1088233565522790137" depart="120.00" departLane="1" departPos="12.36" departSpeed="max" arrivalLane="1" arrivalPos="32.63">
        <route edges="gneE71 edge-west-WS gneE60 gneE60.110 gneE61 gneE62 gneE78 gneE78.64 gneE80 edge-east-EN"/>
    </vehicle>
    <vehicle id="-flow-random-route-fb9d63ee-040e-4fde-9edd-144ca961f8d4-1886388836559839282-11-0.1" type="actor-car-1088233565522790137" depart="120.00" departLane="0" departPos="78.10" departSpeed="max" arrivalLane="0" arrivalPos="70.54">
        <route edges="gneE60 gneE60.110 gneE61 gneE62 gneE78 gneE81 gneE60.110 gneE61 gneE62 gneE69"/>
    </vehicle>
    <vehicle id="-flow-random-route-0cde6c1e-56a8-40cf-a715-9c96770e2b5b-1886388836559839282-21-0.2" type="actor-car-1088233565522790137" depart="240.00" departLane="0" departPos="63.78" departSpeed="max" arrivalLane="0" arrivalPos="39.79">
        <route edges="gneE71 edge-west-WS edge-south-SE edge-east-EN edge-north-NW edge-west-WS gneE60 gneE60.110 gneE61 gneE62"/>
    </vehicle>
    <vehicle id="-flow-random-route-0d70688c-88e0-449a-adb7-da5711f78eb3-1886388836559839282-12-0.2" type="actor-car-1088233565522790137" depart="240.00" departLane="0" departPos="3.27" departSpeed="max" arrivalLane="0" arrivalPos="41.39">
        <route edges="gneE80 edge-east-EN edge-north-NW edge-west-WS gneE60 gneE60.110 gneE61 gneE62 gneE69 gneE71"/>
    </vehicle>
    <vehicle id="-flow-random-route-113af98b-4de4-4051-bcd8-b452401b6d35-1886388836559839282-13-0.2" type="actor-car-1088233565522790137" depart="240.00" departLane="0" departPos="1.17" departSpeed="max" arrivalLane="0" arrivalPos="16.29">
        <route edges="gneE61 gneE62 gneE78 gneE81 gneE60.110 gneE61 gneE62 gneE69 gneE71 edge-west-WS"/>
    </vehicle>
    <vehicle id="-flow-random-route-1309c975-0218-4ec8-ac58-615bbda927a2-1886388836559839282-18-0.2" type="actor-car-1088233565522790137" depart="240.00" departLane="0" departPos="3.31" departSpeed="max" arrivalLane="0" arrivalPos="70.01">
        <route edges="gneE69 gneE71 edge-west-WS"/>
    </vehicle>
    <vehicle id="-flow-random-route-1c46fd3d-83f5-4661-9c96-794a04176c37-1886388836559839282-25-0.2" type="actor-car-1088233565522790137" depart="240.00" departLane="1" departPos="13.59" departSpeed="max" arrivalLane="0" arrivalPos="46.89">
        <route edges="edge-east-EN edge-north-NW edge-west-WS"/>
    </vehicle>
    <vehicle id="-flow-random-route-1c7a0637-1893-4a85-8bcf-0c1f0dfa83c8-1886388836559839282-16-0.2" type="actor-car-1088233565522790137" depart="240.00" departLane="0" departPos="9.90" departSpeed="max" arrivalLane="1" arrivalPos="15.45">
        <route edges="gneE60.110 gneE61 gneE62 gneE78 gneE78.64 gneE80 edge-east-EN edge-north-NW edge-west-WS gneE60"/>
    </vehicle>
    <vehicle id="-flow-random-route-2964ae5c-bb93-46c3-a70b-b9cc6079c048-1886388836559839282-4-0.2" type="actor-car-1088233565522790137" depart="240.00" departLane="0" departPos="30.31" departSpeed="max" arrivalLane="1" arrivalPos="12.71">
        <route edges="gneE78 gneE78.64 gneE80 edge-east-EN edge-north-NW edge-west-WS"/>
    </vehicle>
    <vehicle id="-flow-random-route-30c793e3-caea-4515-b0ec-0c8165f4bd13-1886388836559839282-0-0.2" type="actor-car-1088233565522790137" depart="240.00" departLane="1" departPos="3.56" departSpeed="max" arrivalLane="1" arrivalPos="60.25">
        <route edges="gneE80 edge-east-EN edge-north-NW edge-west-WS gneE60 gneE60.110 gneE61 gneE62 gneE78 gneE81"/>
    </vehicle>
    <vehicle id="-flow-random-route-372b7c01-e51d-4c2e-a7d6-3b58bdcd3b2d-1886388836559839282-1-0.2" type="actor-car-1088233565522790137" depart="240.00" departLane="0" departPos="55.69" departSpeed="max" arrivalLane="0" arrivalPos="90.96">
        <route edges="gneE60 gneE60.110 gneE61"/>
    </vehicle>
    <vehicle id="-flow-random-route-3a43c3d3-7f3e-44c9-ad3b-c7eb92952ef0-1886388836559839282-20-0.2" type="actor-car-1088233565522790137" depart="240.00" departLane="0" departPos="62.36" departSpeed="max" arrivalLane="1" arrivalPos="71.78">
        <route edges="gneE61 gneE62 gneE69"/>
    </vehicle>
    <vehicle id="-flow-random-route-3f77afce-510e-4f56-b7aa-abd63b596712-1886388836559839282-3-0.2" type="actor-car-1088233565522790137" depart="240.00" departLane="0" departPos="30.78" departSpeed="max" arrivalLane="0" arrivalPos="31.12">
        <route edges="gneE61 gneE62 gneE69 gneE71 edge-west-WS edge-south-SE"/>
    </vehicle>
    <vehicle id="-flow-random-route-52afdf9e-f474-443e-96fb-201520839d29-1886388836559839282-23-0.2" type="actor-car-1088233565522790137" depart="240.00" departLane="1" departPos="93.57" departSpeed="max" arrivalLane="0" arrivalPos="3.26">
        <route edges="gneE61 gneE62 gneE78 gneE81 gneE60.110 gneE61 gneE62 gneE69 gneE71 edge-west-WS"/>
    </vehicle>
    <vehicle id="-flow-random-route-6103e790-7cd3-41d7-9105-1500fde5cafa-1886388836559839282-2-0.2" type="actor-car-1088233565522790137" depart="240.00" departLane="1" departPos="82.06" departSpeed="max" arrivalLane="1" arrivalPos="33.00">
        <route edges="gneE69 gneE71 edge-west-WS edge-south-SE edge-east-EN edge-north-NW edge-west-WS gneE60 gneE60.110 gneE61"/>
    </vehicle>
    <vehicle id="-flow-random-route-64f49de8-04ff-491a-9685-77389d441619-1886388836559839282-24-0.2" type="actor-car-1088233565522790137" depart="240.00" departLane="1" departPos="14.91" departSpeed="max" arrivalLane="1" arrivalPos="77.33">
        <route edges="edge-west-WS edge-south-SE edge-east-EN edge-north-NW edge-west-WS edge-south-SE edge-east-EN edge-north-NW edge-west-WS gneE60"/>
    </vehicle>
    <vehicle id="-flow-random-route-78b78fe5-a590-4174-a9bd-40061812352c-1886388836559839282-19-0.2" type="actor-car-1088233565522790137" depart="240.00" departLane="1" departPos="49.46" departSpeed="max" arrivalLane="0" arrivalPos="11.60">
        <route edges="gneE61 gneE62 gneE78 gneE78.64 gneE80 edge-east-EN edge-north-NW edge-west-WS gneE60 gneE60.110"/>
    </vehicle>
    <vehicle id="-flow-random-route-8534884e-6b4f-441f-9253-909d355f2743-1886388836559839282-9-0.2" type="actor-car-1088233565522790137" depart="240.00" departLane="1" departPos="131.86" departSpeed="max" arrivalLane="0" arrivalPos="24.29">
        <route edges="gneE69 gneE71 edge-west-WS edge-south-SE edge-east-EN edge-north-NW"/>
    </vehicle>
    <vehicle id="-flow-random-route-870d3cae-f30e-4e32-a456-710558257c42-1886388836559839282-6-0.2" type="actor-car-1088233565522790137" depart="240.00" departLane="0" departPos="13.06" departSpeed="max" arrivalLane="1" arrivalPos="20.19">
        <route edges="edge-south-SE edge-east-EN edge-north-NW edge-west-WS gneE60 gneE60.110 gneE61 gneE62 gneE69 gneE71"/>
    </vehicle>
    <vehicle id="-flow-random-route-924cee08-ce83-4049-ac0d-9a9640cfb710-1886388836559839282-7-0.2" type="actor-car-1088233565522790137" depart="240.00" departLane="0" departPos="101.18" departSpeed="max" arrivalLane="1" arrivalPos="3.53">
        <route edges="gneE78.64 gneE80 edge-east-EN edge-north-NW edge-west-WS gneE60 gneE60.110 gneE61 gneE62 gneE78"/>
    </vehicle>
    <vehicle id="-flow-random-route-93011270-2178-4986-bd28-2cece821b46e-1886388836559839282-5-0.2" type="actor-car-1088233565522790137" depart="240.00" departLane="1" departPos="94.83" departSpeed="max" arrivalLane="1" arrivalPos="14.46">
        <route edges="gneE78.64 gneE80 edge-east-EN edge-north-NW edge-west-WS edge-south-SE"/>
    </vehicle>
    <vehicle id="-flow-random-route-9742ebaf-8fbf-4dce-a185-84215b1afcbc-1886388836559839282-22-0.2" type="actor-car-1088233565522790137" depart="240.00" departLane="1" departPos="42.04" departSpeed="max" arrivalLane="1" arrivalPos="26.39">
        <route edges="edge-north-NW edge-west-WS gneE60"/>
    </vehicle>
    <vehicle id="-flow-random-route-a8ae0a07-8fd7-4080-85d7-151db0d42837-1886388836559839282-14-0.2" type="actor-car-1088233565522790137" depart="240.00" departLane="0" departPos="30.38" departSpeed="max" arrivalLane="0" arrivalPos="43.00">
        <route edges="gneE62 gneE78 gneE78.64 gneE80 edge-east-EN edge-north-NW"/>
    </vehicle>
    <vehicle id="-flow-random-route-adacfe41-aa9c-4aa0-be67-98964461c1f6-1886388836559839282-17-0.2" type="actor-car-1088233565522790137" depart="240.00" departLane="1" departPos="35.74" departSpeed="max" arrivalLane="1" arrivalPos="63.88">
        <route edges="edge-north-NW edge-west-WS"/>
    </vehicle>