<?xml version="1.0" encoding="UTF-8"?>

<!-- generated on Sat Sep  5 16:48:21 2020 by Eclipse SUMO duarouter Version 1.6.0
<configuration xmlns:xsi="http://www.w3.org/2001/XMLSchema-instance" xsi:noNamespaceSchemaLocation="http://sumo.dlr.de/xsd/duarouterConfiguration.xsd">

    <input>
        <net-file value="../dataset_public/roundabout_loop/roundabout_a/map.net.xml"/>
        <route-files value="/tmp/tmp6oepkmvv/trips.trips.xml"/>
    </input>

    <output>
        <output-file value="../dataset_public/roundabout_loop/roundabout_a/traffic/30_patient_car.rou.xml"/>
        <alternatives-output value="../dataset_public/roundabout_loop/roundabout_a/traffic/30_patient_car.rou.alt.xml"/>
    </output>

    <processing>
        <unsorted-input value="true"/>
        <repair value="true"/>
    </processing>

    <report>
        <error-log value="/tmp/smarts/_duarouter_routing/traffic/30_patient_car.log"/>
        <no-step-log value="true"/>
    </report>

    <random_number>
        <seed value="42"/>
    </random_number>

</configuration>
-->

<routes xmlns:xsi="http://www.w3.org/2001/XMLSchema-instance" xsi:noNamespaceSchemaLocation="http://sumo.dlr.de/xsd/routes_file.xsd">
    <vType id="actor-car--1453634065595745610" minGap="2.50" speedFactor="normc(0.50,0.20,0.20,2.00)" vClass="passenger" impatience="0.50" lcCooperative="0.5" lcImpatience="0" jmDriveAfterYellowTime="1.0" accel="2.6" decel="4.5" sigma="0.5"/>
    <vehicle id="-flow-random-route-0996f4e6-44cb-49e1-875c-12d44371e436-4126032424004380953-5-0.0" type="actor-car--1453634065595745610" depart="0.00" departLane="1" departPos="12.16" departSpeed="max" arrivalLane="0" arrivalPos="77.64">
        <route edges="gneE51 -gneE48 -gneE37"/>
    </vehicle>
    <vehicle id="-flow-random-route-0c5e16f6-8f2f-4f3c-8749-1b130fed67f9-4126032424004380953-2-0.0" type="actor-car--1453634065595745610" depart="0.00" departLane="0" departPos="82.61" departSpeed="max" arrivalLane="0" arrivalPos="74.88">
        <route edges="gneE37 gneE48"/>
    </vehicle>
    <vehicle id="-flow-random-route-0c67222d-aa06-4752-9af7-9e11d39308cb-4126032424004380953-10-0.0" type="actor-car--1453634065595745610" depart="0.00" departLane="0" departPos="80.70" departSpeed="max" arrivalLane="0" arrivalPos="0.18">
        <route edges="-gneE37 -gneE36 edge-north-NW edge-west-WS edge-south-SE edge-east-EN edge-north-NW gneE41 gneE42 gneE51"/>
    </vehicle>
    <vehicle id="-flow-random-route-0e15e26a-ec72-477f-9578-5ba680f9db1e-4126032424004380953-4-0.0" type="actor-car--1453634065595745610" depart="0.00" departLane="0" departPos="65.67" departSpeed="max" arrivalLane="0" arrivalPos="53.11">
        <route edges="gneE37 gneE48"/>
    </vehicle>
    <vehicle id="-flow-random-route-10ee1cf7-71c4-4fc4-a720-c9de778949d5-4126032424004380953-15-0.0" type="actor-car--1453634065595745610" depart="0.00" departLane="0" departPos="32.39" departSpeed="max" arrivalLane="1" arrivalPos="6.29">
        <route edges="-gneE37 -gneE36 edge-north-NW edge-west-WS edge-south-SE edge-east-EN gneE36 gneE37 gneE48 gneE53"/>
    </vehicle>
    <vehicle id="-flow-random-route-243e9ee8-3502-4297-8e5b-5f5ad65a766a-4126032424004380953-27-0.0" type="actor-car--1453634065595745610" depart="0.00" departLane="1" departPos="81.61" departSpeed="max" arrivalLane="0" arrivalPos="26.98">
        <route edges="gneE14 gneE13 edge-south-SE edge-east-EN edge-north-NW gneE41 gneE42 gneE51 -gneE48 -gneE37"/>
    </vehicle>
    <vehicle id="-flow-random-route-2761d4f4-5e6a-484e-b22e-2daa414c8c6b-4126032424004380953-6-0.0" type="actor-car--1453634065595745610" depart="0.00" departLane="0" departPos="16.73" departSpeed="max" arrivalLane="0" arrivalPos="13.09">
        <route edges="-gneE36 edge-north-NW edge-west-WS edge-south-SE edge-east-EN edge-north-NW edge-west-WS edge-south-SE edge-east-EN gneE36"/>
    </vehicle>
    <vehicle id="-flow-random-route-2dac0e29-de10-46e3-aeb5-d83abe0bd22d-4126032424004380953-21-0.0" type="actor-car--1453634065595745610" depart="0.00" departLane="0" departPos="5.17" departSpeed="max" arrivalLane="1" arrivalPos="18.89">
        <route edges="-gneE36 edge-north-NW gneE41 gneE42 gneE51 -gneE48 -gneE37 -gneE36 edge-north-NW edge-west-WS"/>
    </vehicle>
    <vehicle id="-flow-random-route-326dee7b-f3b2-4918-b6e6-7cdcb5449af5-4126032424004380953-14-0.0" type="actor-car--1453634065595745610" depart="0.00" departLane="0" departPos="43.54" departSpeed="max" arrivalLane="1" arrivalPos="4.28">
        <route edges="edge-east-EN edge-north-NW gneE41"/>
    </vehicle>
    <vehicle id="-flow-random-route-38a2ea7f-90e1-4d76-9843-51f92eb0bc61-4126032424004380953-7-0.0" type="actor-car--1453634065595745610" depart="0.00" departLane="1" departPos="59.44" departSpeed="max" arrivalLane="1" arrivalPos="8.71">
        <route edges="edge-north-NW gneE41 gneE42 gneE51 -gneE48 -gneE37 -gneE36 edge-north-NW edge-west-WS edge-south-SE"/>
    </vehicle>
    <vehicle id="-flow-random-route-407f2589-c132-43a0-9c69-26c47f96a8a0-4126032424004380953-16-0.0" type="actor-car--1453634065595745610" depart="0.00" departLane="0" departPos="40.41" departSpeed="max" arrivalLane="0" arrivalPos="38.44">
        <route edges="gneE13 edge-south-SE"/>
    </vehicle>
    <vehicle id="-flow-random-route-6af188d7-50ba-47e6-b28d-dfbfe904e673-4126032424004380953-24-0.0" type="actor-car--1453634065595745610" depart="0.00" departLane="0" departPos="14.71" departSpeed="max" arrivalLane="0" arrivalPos="49.42">
        <route edges="-gneE36 edge-north-NW"/>
    </vehicle>
    <vehicle id="-flow-random-route-76e18e5e-eb7f-4067-8e21-f2b221d3cdd0-4126032424004380953-19-0.0" type="actor-car--1453634065595745610" depart="0.00" departLane="0" departPos="89.20" departSpeed="max" arrivalLane="0" arrivalPos="4.18">
        <route edges="-gneE48 -gneE37 -gneE36"/>
    </vehicle>
    <vehicle id="-flow-random-route-89b092d3-dd63-403c-9781-48c68e9b1bfb-4126032424004380953-1-0.0" type="actor-car--1453634065595745610" depart="0.00" departLane="0" departPos="49.00" departSpeed="max" arrivalLane="0" arrivalPos="37.23">
        <route edges="gneE14 gneE13"/>
    </vehicle>
    <vehicle id="-flow-random-route-8cb164b6-592b-4f3a-806b-7faeb60a269a-4126032424004380953-11-0.0" type="actor-car--1453634065595745610" depart="0.00" departLane="0" departPos="40.61" departSpeed="max" arrivalLane="1" arrivalPos="26.83">
        <route edges="edge-east-EN edge-north-NW"/>
    </vehicle>
    <vehicle id="-flow-random-route-8f055959-630f-46bd-b018-7b4ebb1b4bc3-4126032424004380953-3-0.0" type="actor-car--1453634065595745610" depart="0.00" departLane="1" departPos="17.76" departSpeed="max" arrivalLane="0" arrivalPos="95.19">
        <route edges="gneE13 edge-south-SE edge-east-EN edge-north-NW edge-west-WS edge-south-SE edge-east-EN gneE36 gneE37 gneE48"/>
    </vehicle>
    <vehicle id="-flow-random-route-924b185f-4d26-4f79-b025-56b8dd7cadcb-4126032424004380953-17-0.0" type="actor-car--1453634065595745610" depart="0.00" departLane="1" departPos="53.49" departSpeed="max" arrivalLane="0" arrivalPos="99.01">
        <route edges="gneE14 gneE13 edge-south-SE edge-east-EN edge-north-NW gneE41 gneE42 gneE51 -gneE48 -gneE37"/>
    </vehicle>
    <vehicle id="-flow-random-route-962279ee-32b5-4ef1-be8e-7cdef43cf221-4126032424004380953-0-0.0" type="actor-car--1453634065595745610" depart="0.00" departLane="0" departPos="61.54" departSpeed="max" arrivalLane="1" arrivalPos="66.39">
        <route edges="-gneE48 -gneE37 -gneE36 edge-north-NW edge-west-WS edge-south-SE edge-east-EN edge-north-NW gneE41 gneE42"/>
    </vehicle>
    <vehicle id="-flow-random-route-98b50403-3a7f-4a89-9190-c84b3a60f32a-4126032424004380953-23-0.0" type="actor-car--1453634065595745610" depart="0.00" departLane="0" departPos="59.30" departSpeed="max" arrivalLane="0" arrivalPos="45.06">
        <route edges="edge-east-EN gneE36 gneE37 gneE48 gneE53 gneE14 gneE13 edge-south-SE edge-east-EN edge-north-NW"/>
    </vehicle>
    <vehicle id="-flow-random-route-98d291bf-fec8-4b6a-aa4d-bef55a1e2edf-4126032424004380953-22-0.0" type="actor-car--1453634065595745610" depart="0.00" departLane="0" departPos="10.65" departSpeed="max" arrivalLane="1" arrivalPos="6.38">
        <route edges="gneE48 gneE53 gneE14 gneE13 edge-south-SE edge-east-EN"/>
    </vehicle>
    <vehicle id="-flow-random-route-a301e817-b28d-4d07-b19e-27bbd18522c2-4126032424004380953-20-0.0" type="actor-car--1453634065595745610" depart="0.00" departLane="0" departPos="57.03" departSpeed="max" arrivalLane="0" arrivalPos="37.00">
        <route edges="gneE13 edge-south-SE"/>
    </vehicle>
    <vehicle id="-flow-random-route-ab7039f4-08e1-4d40-b0ae-773fd804ca74-4126032424004380953-25-0.0" type="actor-car--1453634065595745610" depart="0.00" departLane="0" departPos="8.62" departSpeed="max" arrivalLane="1" arrivalPos="65.00">
        <route edges="gneE41 gneE42 gneE51 -gneE48 -gneE37 -gneE36 edge-north-NW edge-west-WS edge-south-SE edge-east-EN"/>
    </vehicle>
    <vehicle id="-flow-random-route-ac6ea732-8e60-4046-9973-85c2bc9c14ea-4126032424004380953-29-0.0" type="actor-car--1453634065595745610" depart="0.00" departLane="1" departPos="34.35" departSpeed="max" arrivalLane="0" arrivalPos="82.43">
        <route edges="gneE14 gneE13 edge-south-SE edge-east-EN edge-north-NW gneE41 gneE42 gneE51 -gneE48 -gneE37"/>
    </vehicle>
    <vehicle id="-flow-random-route-b4a85e59-d5ae-4be3-8e4f-8cae930bfa58-4126032424004380953-18-0.0" type="actor-car--1453634065595745610" depart="0.00" departLane="1" departPos="55.00" departSpeed="max" arrivalLane="1" arrivalPos="40.41">
        <route edges="edge-east-EN gneE36 gneE37 gneE48 gneE53 gneE14 gneE13 edge-south-SE edge-east-EN edge-north-NW"/>
    </vehicle>
    <vehicle id="-flow-random-route-c07578f5-b59d-4e4b-b0aa-57491b2d57de-4126032424004380953-12-0.0" type="actor-car--1453634065595745610" depart="0.00" departLane="0" departPos="50.79" departSpeed="max" arrivalLane="0" arrivalPos="47.09">
        <route edges="gneE42 gneE51 -gneE48"/>
    </vehicle>
    <vehicle id="-flow-random-route-d5ce4e2e-9e9a-4e37-a24d-8d2264c6735a-4126032424004380953-28-0.0" type="actor-car--1453634065595745610" depart="0.00" departLane="0" departPos="12.69" departSpeed="max" arrivalLane="1" arrivalPos="56.78">
        <route edges="gneE37 gneE48 gneE53 gneE14 gneE13 edge-south-SE edge-east-EN edge-north-NW gneE41 gneE42"/>
    </vehicle>
    <vehicle id="-flow-random-route-d6c9487d-4f28-47ef-aa5c-894d135c3baf-4126032424004380953-13-0.0" type="actor-car--1453634065595745610" depart="0.00" departLane="0" departPos="6.16" departSpeed="max" arrivalLane="1" arrivalPos="53.83">
        <route edges="edge-south-SE edge-east-EN"/>
    </vehicle>
    <vehicle id="-flow-random-route-ed643649-6bfa-4fa6-96dd-020aba6eafa9-4126032424004380953-8-0.0" type="actor-car--1453634065595745610" depart="0.00" departLane="0" departPos="70.18" departSpeed="max" arrivalLane="0" arrivalPos="17.32">
        <route edges="-gneE48 -gneE37 -gneE36"/>
    </vehicle>
    <vehicle id="-flow-random-route-ee18c833-34a1-4612-a2de-efd9d40a7e5a-4126032424004380953-9-0.0" type="actor-car--1453634065595745610" depart="0.00" departLane="1" departPos="52.92" departSpeed="max" arrivalLane="0" arrivalPos="25.87">
        <route edges="edge-east-EN edge-north-NW edge-west-WS edge-south-SE edge-east-EN gneE36 gneE37 gneE48 gneE53 gneE14"/>
    </vehicle>
    <vehicle id="-flow-random-route-f1738e80-b580-438d-8ff8-bfaf6d943518-4126032424004380953-26-0.0" type="actor-car--1453634065595745610" depart="0.00" departLane="0" departPos="166.20" departSpeed="max" arrivalLane="0" arrivalPos="38.25">
        <route edges="-gneE37 -gneE36 edge-north-NW"/>
    </vehicle>
    <vehicle id="-flow-random-route-0996f4e6-44cb-49e1-875c-12d44371e436-4126032424004380953-5-0.1" type="actor-car--1453634065595745610" depart="120.00" departLane="1" departPos="12.16" departSpeed="max" arrivalLane="0" arrivalPos="77.64">
        <route edges="gneE51 -gneE48 -gneE37"/>
    </vehicle>
    <vehicle id="-flow-random-route-0c5e16f6-8f2f-4f3c-8749-1b130fed67f9-4126032424004380953-2-0.1" type="actor-car--1453634065595745610" depart="120.00" departLane="0" departPos="82.61" departSpeed="max" arrivalLane="0" arrivalPos="74.88">
        <route edges="gneE37 gneE48"/>
    </vehicle>
    <vehicle id="-flow-random-route-0c67222d-aa06-4752-9af7-9e11d39308cb-4126032424004380953-10-0.1" type="actor-car--1453634065595745610" depart="120.00" departLane="0" departPos="80.70" departSpeed="max" arrivalLane="0" arrivalPos="0.18">
        <route edges="-gneE37 -gneE36 edge-north-NW edge-west-WS edge-south-SE edge-east-EN edge-north-NW gneE41 gneE42 gneE51"/>
    </vehicle>
    <vehicle id="-flow-random-route-0e15e26a-ec72-477f-9578-5ba680f9db1e-4126032424004380953-4-0.1" type="actor-car--1453634065595745610" depart="120.00" departLane="0" departPos="65.67" departSpeed="max" arrivalLane="0" arrivalPos="53.11">
        <route edges="gneE37 gneE48"/>
    </vehicle>
    <vehicle id="-flow-random-route-10ee1cf7-71c4-4fc4-a720-c9de778949d5-4126032424004380953-15-0.1" type="actor-car--1453634065595745610" depart="120.00" departLane="0" departPos="32.39" departSpeed="max" arrivalLane="1" arrivalPos="6.29">
        <route edges="-gneE37 -gneE36 edge-north-NW edge-west-WS edge-south-SE edge-east-EN gneE36 gneE37 gneE48 gneE53"/>
    </vehicle>
    <vehicle id="-flow-random-route-243e9ee8-3502-4297-8e5b-5f5ad65a766a-4126032424004380953-27-0.1" type="actor-car--1453634065595745610" depart="120.00" departLane="1" departPos="81.61" departSpeed="max" arrivalLane="0" arrivalPos="26.98">
        <route edges="gneE14 gneE13 edge-south-SE edge-east-EN edge-north-NW gneE41 gneE42 gneE51 -gneE48 -gneE37"/>
    </vehicle>
    <vehicle id="-flow-random-route-2761d4f4-5e6a-484e-b22e-2daa414c8c6b-4126032424004380953-6-0.1" type="actor-car--1453634065595745610" depart="120.00" departLane="0" departPos="16.73" departSpeed="max" arrivalLane="0" arrivalPos="13.09">
        <route edges="-gneE36 edge-north-NW edge-west-WS edge-south-SE edge-east-EN edge-north-NW edge-west-WS edge-south-SE edge-east-EN gneE36"/>
    </vehicle>
    <vehicle id="-flow-random-route-2dac0e29-de10-46e3-aeb5-d83abe0bd22d-4126032424004380953-21-0.1" type="actor-car--1453634065595745610" depart="120.00" departLane="0" departPos="5.17" departSpeed="max" arrivalLane="1" arrivalPos="18.89">
        <route edges="-gneE36 edge-north-NW gneE41 gneE42 gneE51 -gneE48 -gneE37 -gneE36 edge-north-NW edge-west-WS"/>
    </vehicle>
    <vehicle id="-flow-random-route-326dee7b-f3b2-4918-b6e6-7cdcb5449af5-4126032424004380953-14-0.1" type="actor-car--1453634065595745610" depart="120.00" departLane="0" departPos="43.54" departSpeed="max" arrivalLane="1" arrivalPos="4.28">
        <route edges="edge-east-EN edge-north-NW gneE41"/>
    </vehicle>
    <vehicle id="-flow-random-route-38a2ea7f-90e1-4d76-9843-51f92eb0bc61-4126032424004380953-7-0.1" type="actor-car--1453634065595745610" depart="120.00" departLane="1" departPos="59.44" departSpeed="max" arrivalLane="1" arrivalPos="8.71">
        <route edges="edge-north-NW gneE41 gneE42 gneE51 -gneE48 -gneE37 -gneE36 edge-north-NW edge-west-WS edge-south-SE"/>
    </vehicle>
    <vehicle id="-flow-random-route-407f2589-c132-43a0-9c69-26c47f96a8a0-4126032424004380953-16-0.1" type="actor-car--1453634065595745610" depart="120.00" departLane="0" departPos="40.41" departSpeed="max" arrivalLane="0" arrivalPos="38.44">
        <route edges="gneE13 edge-south-SE"/>
    </vehicle>
    <vehicle id="-flow-random-route-6af188d7-50ba-47e6-b28d-dfbfe904e673-4126032424004380953-24-0.1" type="actor-car--1453634065595745610" depart="120.00" departLane="0" departPos="14.71" departSpeed="max" arrivalLane="0" arrivalPos="49.42">
        <route edges="-gneE36 edge-north-NW"/>
    </vehicle>
    <vehicle id="-flow-random-route-76e18e5e-eb7f-4067-8e21-f2b221d3cdd0-4126032424004380953-19-0.1" type="actor-car--1453634065595745610" depart="120.00" departLane="0" departPos="89.20" departSpeed="max" arrivalLane="0" arrivalPos="4.18">
        <route edges="-gneE48 -gneE37 -gneE36"/>
    </vehicle>
    <vehicle id="-flow-random-route-89b092d3-dd63-403c-9781-48c68e9b1bfb-4126032424004380953-1-0.1" type="actor-car--1453634065595745610" depart="120.00" departLane="0" departPos="49.00" departSpeed="max" arrivalLane="0" arrivalPos="37.23">
        <route edges="gneE14 gneE13"/>
    </vehicle>
    <vehicle id="-flow-random-route-8cb164b6-592b-4f3a-806b-7faeb60a269a-4126032424004380953-11-0.1" type="actor-car--1453634065595745610" depart="120.00" departLane="0" departPos="40.61" departSpeed="max" arrivalLane="1" arrivalPos="26.83">
        <route edges="edge-east-EN edge-north-NW"/>
    </vehicle>
    <vehicle id="-flow-random-route-8f055959-630f-46bd-b018-7b4ebb1b4bc3-4126032424004380953-3-0.1" type="actor-car--1453634065595745610" depart="120.00" departLane="1" departPos="17.76" departSpeed="max" arrivalLane="0" arrivalPos="95.19">
        <route edges="gneE13 edge-south-SE edge-east-EN edge-north-NW edge-west-WS edge-south-SE edge-east-EN gneE36 gneE37 gneE48"/>
    </vehicle>
    <vehicle id="-flow-random-route-924b185f-4d26-4f79-b025-56b8dd7cadcb-4126032424004380953-17-0.1" type="actor-car--1453634065595745610" depart="120.00" departLane="1" departPos="53.49" departSpeed="max" arrivalLane="0" arrivalPos="99.01">
        <route edges="gneE14 gneE13 edge-south-SE edge-east-EN edge-north-NW gneE41 gneE42 gneE51 -gneE48 -gneE37"/>
    </vehicle>
    <vehicle id="-flow-random-route-962279ee-32b5-4ef1-be8e-7cdef43cf221-4126032424004380953-0-0.1" type="actor-car--1453634065595745610" depart="120.00" departLane="0" departPos="61.54" departSpeed="max" arrivalLane="1" arrivalPos="66.39">
        <route edges="-gneE48 -gneE37 -gneE36 edge-north-NW edge-west-WS edge-south-SE edge-east-EN edge-north-NW gneE41 gneE42"/>
    </vehicle>
    <vehicle id="-flow-random-route-98b50403-3a7f-4a89-9190-c84b3a60f32a-4126032424004380953-23-0.1" type="actor-car--1453634065595745610" depart="120.00" departLane="0" departPos="59.30" departSpeed="max" arrivalLane="0" arrivalPos="45.06">
        <route edges="edge-east-EN gneE36 gneE37 gneE48 gneE53 gneE14 gneE13 edge-south-SE edge-east-EN edge-north-NW"/>
    </vehicle>
    <vehicle id="-flow-random-route-98d291bf-fec8-4b6a-aa4d-bef55a1e2edf-4126032424004380953-22-0.1" type="actor-car--1453634065595745610" depart="120.00" departLane="0" departPos="10.65" departSpeed="max" arrivalLane="1" arrivalPos="6.38">
        <route edges="gneE48 gneE53 gneE14 gneE13 edge-south-SE edge-east-EN"/>
    </vehicle>
    <vehicle id="-flow-random-route-a301e817-b28d-4d07-b19e-27bbd18522c2-4126032424004380953-20-0.1" type="actor-car--1453634065595745610" depart="120.00" departLane="0" departPos="57.03" departSpeed="max" arrivalLane="0" arrivalPos="37.00">
        <route edges="gneE13 edge-south-SE"/>
    </vehicle>
    <vehicle id="-flow-random-route-ab7039f4-08e1-4d40-b0ae-773fd804ca74-4126032424004380953-25-0.1" type="actor-car--1453634065595745610" depart="120.00" departLane="0" departPos="8.62" departSpeed="max" arrivalLane="1" arrivalPos="65.00">
        <route edges="gneE41 gneE42 gneE51 -gneE48 -gneE37 -gneE36 edge-north-NW edge-west-WS edge-south-SE edge-east-EN"/>
    </vehicle>
    <vehicle id="-flow-random-route-ac6ea732-8e60-4046-9973-85c2bc9c14ea-4126032424004380953-29-0.1" type="actor-car--1453634065595745610" depart="120.00" departLane="1" departPos="34.35" departSpeed="max" arrivalLane="0" arrivalPos="82.43">
        <route edges="gneE14 gneE13 edge-south-SE edge-east-EN edge-north-NW gneE41 gneE42 gneE51 -gneE48 -gneE37"/>
    </vehicle>
    <vehicle id="-flow-random-route-b4a85e59-d5ae-4be3-8e4f-8cae930bfa58-4126032424004380953-18-0.1" type="actor-car--1453634065595745610" depart="120.00" departLane="1" departPos="55.00" departSpeed="max" arrivalLane="1" arrivalPos="40.41">
        <route edges="edge-east-EN gneE36 gneE37 gneE48 gneE53 gneE14 gneE13 edge-south-SE edge-east-EN edge-north-NW"/>
    </vehicle>
    <vehicle id="-flow-random-route-c07578f5-b59d-4e4b-b0aa-57491b2d57de-4126032424004380953-12-0.1" type="actor-car--1453634065595745610" depart="120.00" departLane="0" departPos="50.79" departSpeed="max" arrivalLane="0" arrivalPos="47.09">
        <route edges="gneE42 gneE51 -gneE48"/>
    </vehicle>
    <vehicle id="-flow-random-route-d5ce4e2e-9e9a-4e37-a24d-8d2264c6735a-4126032424004380953-28-0.1" type="actor-car--1453634065595745610" depart="120.00" departLane="0" departPos="12.69" departSpeed="max" arrivalLane="1" arrivalPos="56.78">
        <route edges="gneE37 gneE48 gneE53 gneE14 gneE13 edge-south-SE edge-east-EN edge-north-NW gneE41 gneE42"/>
    </vehicle>
    <vehicle id="-flow-random-route-d6c9487d-4f28-47ef-aa5c-894d135c3baf-4126032424004380953-13-0.1" type="actor-car--1453634065595745610" depart="120.00" departLane="0" departPos="6.16" departSpeed="max" arrivalLane="1" arrivalPos="53.83">
        <route edges="edge-south-SE edge-east-EN"/>
    </vehicle>
    <vehicle id="-flow-random-route-ed643649-6bfa-4fa6-96dd-020aba6eafa9-4126032424004380953-8-0.1" type="actor-car--1453634065595745610" depart="120.00" departLane="0" departPos="70.18" departSpeed="max" arrivalLane="0" arrivalPos="17.32">
        <route edges="-gneE48 -gneE37 -gneE36"/>
    </vehicle>
    <vehicle id="-flow-random-route-ee18c833-34a1-4612-a2de-efd9d40a7e5a-4126032424004380953-9-0.1" type="actor-car--1453634065595745610" depart="120.00" departLane="1" departPos="52.92" departSpeed="max" arrivalLane="0" arrivalPos="25.87">
        <route edges="edge-east-EN edge-north-NW edge-west-WS edge-south-SE edge-east-EN gneE36 gneE37 gneE48 gneE53 gneE14"/>
    </vehicle>
    <vehicle id="-flow-random-route-f1738e80-b580-438d-8ff8-bfaf6d943518-4126032424004380953-26-0.1" type="actor-car--1453634065595745610" depart="120.00" departLane="0" departPos="166.20" departSpeed="max" arrivalLane="0" arrivalPos="38.25">
        <route edges="-gneE37 -gneE36 edge-north-NW"/>
    </vehicle>
    <vehicle id="-flow-random-route-0996f4e6-44cb-49e1-875c-12d44371e436-4126032424004380953-5-0.2" type="actor-car--1453634065595745610" depart="240.00" departLane="1" departPos="12.16" departSpeed="max" arrivalLane="0" arrivalPos="77.64">
        <route edges="gneE51 -gneE48 -gneE37"/>
    </vehicle>
    <vehicle id="-flow-random-route-0c5e16f6-8f2f-4f3c-8749-1b130fed67f9-4126032424004380953-2-0.2" type="actor-car--1453634065595745610" depart="240.00" departLane="0" departPos="82.61" departSpeed="max" arrivalLane="0" arrivalPos="74.88">
        <route edges="gneE37 gneE48"/>
    </vehicle>
    <vehicle id="-flow-random-route-0c67222d-aa06-4752-9af7-9e11d39308cb-4126032424004380953-10-0.2" type="actor-car--1453634065595745610" depart="240.00" departLane="0" departPos="80.70" departSpeed="max" arrivalLane="0" arrivalPos="0.18">
        <route edges="-gneE37 -gneE36 edge-north-NW edge-west-WS edge-south-SE edge-east-EN edge-north-NW gneE41 gneE42 gneE51"/>
    </vehicle>
    <vehicle id="-flow-random-route-0e15e26a-ec72-477f-9578-5ba680f9db1e-4126032424004380953-4-0.2" type="actor-car--1453634065595745610" depart="240.00" departLane="0" departPos="65.67" departSpeed="max" arrivalLane="0" arrivalPos="53.11">
        <route edges="gneE37 gneE48"/>
    </vehicle>
    <vehicle id="-flow-random-route-10ee1cf7-71c4-4fc4-a720-c9de778949d5-4126032424004380953-15-0.2" type="actor-car--1453634065595745610" depart="240.00" departLane="0" departPos="32.39" departSpeed="max" arrivalLane="1" arrivalPos="6.29">
        <route edges="-gneE37 -gneE36 edge-north-NW edge-west-WS edge-south-SE edge-east-EN gneE36 gneE37 gneE48 gneE53"/>
    </vehicle>
    <vehicle id="-flow-random-route-243e9ee8-3502-4297-8e5b-5f5ad65a766a-4126032424004380953-27-0.2" type="actor-car--1453634065595745610" depart="240.00" departLane="1" departPos="81.61" departSpeed="max" arrivalLane="0" arrivalPos="26.98">
        <route edges="gneE14 gneE13 edge-south-SE edge-east-EN edge-north-NW gneE41 gneE42 gneE51 -gneE48 -gneE37"/>
    </vehicle>
    <vehicle id="-flow-random-route-2761d4f4-5e6a-484e-b22e-2daa414c8c6b-4126032424004380953-6-0.2" type="actor-car--1453634065595745610" depart="240.00" departLane="0" departPos="16.73" departSpeed="max" arrivalLane="0" arrivalPos="13.09">
        <route edges="-gneE36 edge-north-NW edge-west-WS edge-south-SE edge-east-EN edge-north-NW edge-west-WS edge-south-SE edge-east-EN gneE36"/>
    </vehicle>
    <vehicle id="-flow-random-route-2dac0e29-de10-46e3-aeb5-d83abe0bd22d-4126032424004380953-21-0.2" type="actor-car--1453634065595745610" depart="240.00" departLane="0" departPos="5.17" departSpeed="max" arrivalLane="1" arrivalPos="18.89">
        <route edges="-gneE36 edge-north-NW gneE41 gneE42 gneE51 -gneE48 -gneE37 -gneE36 edge-north-NW edge-west-WS"/>
    </vehicle>
    <vehicle id="-flow-random-route-326dee7b-f3b2-4918-b6e6-7cdcb5449af5-4126032424004380953-14-0.2" type="actor-car--1453634065595745610" depart="240.00" departLane="0" departPos="43.54" departSpeed="max" arrivalLane="1" arrivalPos="4.28">
        <route edges="edge-east-EN edge-north-NW gneE41"/>
    </vehicle>
    <vehicle id="-flow-random-route-38a2ea7f-90e1-4d76-9843-51f92eb0bc61-4126032424004380953-7-0.2" type="actor-car--1453634065595745610" depart="240.00" departLane="1" departPos="59.44" departSpeed="max" arrivalLane="1" arrivalPos="8.71">
        <route edges="edge-north-NW gneE41 gneE42 gneE51 -gneE48 -gneE37 -gneE36 edge-north-NW edge-west-WS edge-south-SE"/>
    </vehicle>
    <vehicle id="-flow-random-route-407f2589-c132-43a0-9c69-26c47f96a8a0-4126032424004380953-16-0.2" type="actor-car--1453634065595745610" depart="240.00" departLane="0" departPos="40.41" departSpeed="max" arrivalLane="0" arrivalPos="38.44">
        <route edges="gneE13 edge-south-SE"/>
    </vehicle>
    <vehicle id="-flow-random-route-6af188d7-50ba-47e6-b28d-dfbfe904e673-4126032424004380953-24-0.2" type="actor-car--1453634065595745610" depart="240.00" departLane="0" departPos="14.71" departSpeed="max" arrivalLane="0" arrivalPos="49.42">
        <route edges="-gneE36 edge-north-NW"/>
    </vehicle>
    <vehicle id="-flow-random-route-76e18e5e-eb7f-4067-8e21-f2b221d3cdd0-4126032424004380953-19-0.2" type="actor-car--1453634065595745610" depart="240.00" departLane="0" departPos="89.20" departSpeed="max" arrivalLane="0" arrivalPos="4.18">
        <route edges="-gneE48 -gneE37 -gneE36"/>
    </vehicle>
    <vehicle id="-flow-random-route-89b092d3-dd63-403c-9781-48c68e9b1bfb-4126032424004380953-1-0.2" type="actor-car--1453634065595745610" depart="240.00" departLane="0" departPos="49.00" departSpeed="max" arrivalLane="0" arrivalPos="37.23">
        <route edges="gneE14 gneE13"/>
    </vehicle>
    <vehicle id="-flow-random-route-8cb164b6-592b-4f3a-806b-7faeb60a269a-4126032424004380953-11-0.2" type="actor-car--1453634065595745610" depart="240.00" departLane="0" departPos="40.61" departSpeed="max" arrivalLane="1" arrivalPos="26.83">
        <route edges="edge-east-EN edge-north-NW"/>
    </vehicle>
    <vehicle id="-flow-random-route-8f055959-630f-46bd-b018-7b4ebb1b4bc3-4126032424004380953-3-0.2" type="actor-car--1453634065595745610" depart="240.00" departLane="1" departPos="17.76" departSpeed="max" arrivalLane="0" arrivalPos="95.19">
        <route edges="gneE13 edge-south-SE edge-east-EN edge-north-NW edge-west-WS edge-south-SE edge-east-EN gneE36 gneE37 gneE48"/>
    </vehicle>
    <vehicle id="-flow-random-route-924b185f-4d26-4f79-b025-56b8dd7cadcb-4126032424004380953-17-0.2" type="actor-car--1453634065595745610" depart="240.00" departLane="1" departPos="53.49" departSpeed="max" arrivalLane="0" arrivalPos="99.01">
        <route edges="gneE14 gneE13 edge-south-SE edge-east-EN edge-north-NW gneE41 gneE42 gneE51 -gneE48 -gneE37"/>
    </vehicle>
    <vehicle id="-flow-random-route-962279ee-32b5-4ef1-be8e-7cdef43cf221-4126032424004380953-0-0.2" type="actor-car--1453634065595745610" depart="240.00" departLane="0" departPos="61.54" departSpeed="max" arrivalLane="1" arrivalPos="66.39">
        <route edges="-gneE48 -gneE37 -gneE36 edge-north-NW edge-west-WS edge-south-SE edge-east-EN edge-north-NW gneE41 gneE42"/>
    </vehicle>
    <vehicle id="-flow-random-route-98b50403-3a7f-4a89-9190-c84b3a60f32a-4126032424004380953-23-0.2" type="actor-car--1453634065595745610" depart="240.00" departLane="0" departPos="59.30" departSpeed="max" arrivalLane="0" arrivalPos="45.06">
        <route edges="edge-east-EN gneE36 gneE37 gneE48 gneE53 gneE14 gneE13 edge-south-SE edge-east-EN edge-north-NW"/>
    </vehicle>
    <vehicle id="-flow-random-route-98d291bf-fec8-4b6a-aa4d-bef55a1e2edf-4126032424004380953-22-0.2" type="actor-car--1453634065595745610" depart="240.00" departLane="0" departPos="10.65" departSpeed="max" arrivalLane="1" arrivalPos="6.38">
        <route edges="gneE48 gneE53 gneE14 gneE13 edge-south-SE edge-east-EN"/>
    </vehicle>
    <vehicle id="-flow-random-route-a301e817-b28d-4d07-b19e-27bbd18522c2-4126032424004380953-20-0.2" type="actor-car--1453634065595745610" depart="240.00" departLane="0" departPos="57.03" departSpeed="max" arrivalLane="0" arrivalPos="37.00">
        <route edges="gneE13 edge-south-SE"/>
    </vehicle>
    <vehicle id="-flow-random-route-ab7039f4-08e1-4d40-b0ae-773fd804ca74-4126032424004380953-25-0.2" type="actor-car--1453634065595745610" depart="240.00" departLane="0" departPos="8.62" departSpeed="max" arrivalLane="1" arrivalPos="65.00">
        <route edges="gneE41 gneE42 gneE51 -gneE48 -gneE37 -gneE36 edge-north-NW edge-west-WS edge-south-SE edge-east-EN"/>
    </vehicle>
    <vehicle id="-flow-random-route-ac6ea732-8e60-4046-9973-85c2bc9c14ea-4126032424004380953-29-0.2" type="actor-car--1453634065595745610" depart="240.00" departLane="1" departPos="34.35" departSpeed="max" arrivalLane="0" arrivalPos="82.43">
        <route edges="gneE14 gneE13 edge-south-SE edge-east-EN edge-north-NW gneE41 gneE42 gneE51 -gneE48 -gneE37"/>
    </vehicle>