<?xml version="1.0" encoding="UTF-8"?>

<!-- generated on Sat Sep  5 16:48:21 2020 by Eclipse SUMO duarouter Version 1.6.0
<configuration xmlns:xsi="http://www.w3.org/2001/XMLSchema-instance" xsi:noNamespaceSchemaLocation="http://sumo.dlr.de/xsd/duarouterConfiguration.xsd">

    <input>
        <net-file value="../dataset_public/mixed_loop/roundabout_its_a/map.net.xml"/>
        <route-files value="/tmp/tmpjvubea9i/trips.trips.xml"/>
    </input>

    <output>
        <output-file value="../dataset_public/mixed_loop/roundabout_its_a/traffic/30_patient_car.rou.xml"/>
        <alternatives-output value="../dataset_public/mixed_loop/roundabout_its_a/traffic/30_patient_car.rou.alt.xml"/>
    </output>

    <processing>
        <unsorted-input value="true"/>
        <repair value="true"/>
    </processing>

    <report>
        <error-log value="/tmp/smarts/_duarouter_routing/traffic/30_patient_car.log"/>
        <no-step-log value="true"/>
    </report>

    <random_number>
        <seed value="42"/>
    </random_number>

</configuration>
-->

<routes xmlns:xsi="http://www.w3.org/2001/XMLSchema-instance" xsi:noNamespaceSchemaLocation="http://sumo.dlr.de/xsd/routes_file.xsd">
    <vType id="actor-car--6464489637536069593" minGap="2.50" speedFactor="normc(0.50,0.20,0.20,2.00)" vClass="passenger" impatience="0.50" lcCooperative="0.5" lcImpatience="0" jmDriveAfterYellowTime="1.0" accel="2.6" decel="4.5" sigma="0.5"/>
    <vehicle id="-flow-random-route-028bea9c-2148-4125-9a3f-f163bba727fd--6326688768583334578-28-0.0" type="actor-car--6464489637536069593" depart="0.00" departLane="0" departPos="48.36" departSpeed="max" arrivalLane="0" arrivalPos="60.41">
        <route edges="gneE91 gneE92 edge-west-WS gneE96 gneE97 gneE98 -gneE82 -gneE81 edge-east-EN gneE95"/>
    </vehicle>
    <vehicle id="-flow-random-route-0c3c08e6-8753-40ea-a613-3a2128e32851--6326688768583334578-17-0.0" type="actor-car--6464489637536069593" depart="0.00" departLane="0" departPos="95.35" departSpeed="max" arrivalLane="0" arrivalPos="93.70">
        <route edges="-gneE91 -gneE94"/>
    </vehicle>
    <vehicle id="-flow-random-route-0da7cb77-7e3a-4df8-aedf-086427d30e16--6326688768583334578-11-0.0" type="actor-car--6464489637536069593" depart="0.00" departLane="0" departPos="25.55" departSpeed="max" arrivalLane="0" arrivalPos="81.07">
        <route edges="-gneE94 -gneE95 edge-north-NW edge-west-WS gneE96 gneE97 gneE98 gneE93 gneE94 gneE91"/>
    </vehicle>
    <vehicle id="-flow-random-route-112ca224-0a60-4ed5-85c3-4fe56973f64c--6326688768583334578-13-0.0" type="actor-car--6464489637536069593" depart="0.00" departLane="0" departPos="30.87" departSpeed="max" arrivalLane="0" arrivalPos="48.51">
        <route edges="edge-north-NW -gneE92 -gneE91 -gneE94 -gneE95 edge-north-NW edge-west-WS gneE96 gneE97 gneE98"/>
    </vehicle>
    <vehicle id="-flow-random-route-181ca5ae-3564-40bf-9679-f8b5e0fedc7b--6326688768583334578-23-0.0" type="actor-car--6464489637536069593" depart="0.00" departLane="0" departPos="29.83" departSpeed="max" arrivalLane="0" arrivalPos="117.42">
        <route edges="edge-south-SE gneE81 gneE82 gneE93 gneE94 gneE91 gneE92 edge-west-WS gneE96 gneE97"/>
    </vehicle>
    <vehicle id="-flow-random-route-1a42b5b1-1eea-4a14-b37f-1e2c86993308--6326688768583334578-29-0.0" type="actor-car--6464489637536069593" depart="0.00" departLane="0" departPos="12.00" departSpeed="max" arrivalLane="0" arrivalPos="2.18">
        <route edges="-gneE95 edge-north-NW edge-west-WS edge-south-SE gneE81 gneE82 gneE93 -gneE95 edge-north-NW -gneE92"/>
    </vehicle>
    <vehicle id="-flow-random-route-1dcd18a7-2771-4d45-92fc-edf2eebb2ad9--6326688768583334578-19-0.0" type="actor-car--6464489637536069593" depart="0.00" departLane="0" departPos="88.80" departSpeed="max" arrivalLane="0" arrivalPos="24.10">
        <route edges="gneE97 gneE98 -gneE82 -gneE81 edge-east-EN gneE95 gneE94 gneE91 gneE92 edge-west-WS"/>
    </vehicle>
    <vehicle id="-flow-random-route-1fa1bb0c-493b-48bf-9d5d-029a6630f2c8--6326688768583334578-24-0.0" type="actor-car--6464489637536069593" depart="0.00" departLane="0" departPos="36.38" departSpeed="max" arrivalLane="0" arrivalPos="87.01">
        <route edges="-gneE91 -gneE94"/>
    </vehicle>
    <vehicle id="-flow-random-route-2dad69a9-ff95-4e19-872f-e476c0809e33--6326688768583334578-4-0.0" type="actor-car--6464489637536069593" depart="0.00" departLane="1" departPos="9.87" departSpeed="max" arrivalLane="0" arrivalPos="70.42">
        <route edges="edge-north-NW edge-west-WS edge-south-SE gneE81 gneE82 gneE93 -gneE95 edge-north-NW -gneE92 -gneE91"/>
    </vehicle>
    <vehicle id="-flow-random-route-3cc78026-e7ce-4398-9983-e55c3b67c27b--6326688768583334578-26-0.0" type="actor-car--6464489637536069593" depart="0.00" departLane="0" departPos="40.48" departSpeed="max" arrivalLane="0" arrivalPos="12.69">
        <route edges="gneE91 gneE92 edge-west-WS gneE96 gneE97 gneE98 gneE93 -gneE95 edge-north-NW -gneE92"/>
    </vehicle>
    <vehicle id="-flow-random-route-4234539d-a0f7-4b9d-962a-5aa27f51321b--6326688768583334578-6-0.0" type="actor-car--6464489637536069593" depart="0.00" departLane="0" departPos="49.50" departSpeed="max" arrivalLane="0" arrivalPos="81.65">
        <route edges="-gneE95 edge-north-NW -gneE92 -gneE91 -gneE94"/>
    </vehicle>
    <vehicle id="-flow-random-route-4e958fa4-7f34-4db8-b102-a387c188216b--6326688768583334578-18-0.0" type="actor-car--6464489637536069593" depart="0.00" departLane="0" departPos="0.84" departSpeed="max" arrivalLane="0" arrivalPos="13.03">
        <route edges="gneE82 gneE93 -gneE95 edge-north-NW -gneE92"/>
    </vehicle>
    <vehicle id="-flow-random-route-5799aaf5-f4b4-4300-9494-bcbda5516d87--6326688768583334578-0-0.0" type="actor-car--6464489637536069593" depart="0.00" departLane="0" departPos="82.74" departSpeed="max" arrivalLane="0" arrivalPos="11.84">
        <route edges="gneE98 -gneE82"/>
    </vehicle>
    <vehicle id="-flow-random-route-5ae99033-f9f6-4e7b-a90c-ec91ea38f0d9--6326688768583334578-25-0.0" type="actor-car--6464489637536069593" depart="0.00" departLane="1" departPos="12.47" departSpeed="max" arrivalLane="0" arrivalPos="47.16">
        <route edges="edge-east-EN edge-north-NW -gneE92 -gneE91 -gneE94 -gneE93 -gneE82 -gneE81 edge-east-EN gneE95"/>
    </vehicle>
    <vehicle id="-flow-random-route-5fb59b80-c702-4f1a-bac3-099ed45b788f--6326688768583334578-16-0.0" type="actor-car--6464489637536069593" depart="0.00" departLane="0" departPos="53.67" departSpeed="max" arrivalLane="1" arrivalPos="40.32">
        <route edges="-gneE91 -gneE94 -gneE93 -gneE82 -gneE81 edge-east-EN"/>
    </vehicle>
    <vehicle id="-flow-random-route-83449bd9-5427-404e-b660-e0b33ef5be1d--6326688768583334578-14-0.0" type="actor-car--6464489637536069593" depart="0.00" departLane="0" departPos="70.51" departSpeed="max" arrivalLane="0" arrivalPos="62.82">
        <route edges="-gneE94 -gneE93"/>
    </vehicle>
    <vehicle id="-flow-random-route-923e3c2b-c086-4700-afe5-28c2d513d2e8--6326688768583334578-2-0.0" type="actor-car--6464489637536069593" depart="0.00" departLane="0" departPos="67.74" departSpeed="max" arrivalLane="0" arrivalPos="1.57">
        <route edges="gneE82 gneE93 -gneE95 edge-north-NW edge-west-WS gneE96 gneE97 gneE98 -gneE82 -gneE81"/>
    </vehicle>
    <vehicle id="-flow-random-route-9892d192-75b9-4308-bbba-9a159d83498f--6326688768583334578-7-0.0" type="actor-car--6464489637536069593" depart="0.00" departLane="1" departPos="20.84" departSpeed="max" arrivalLane="1" arrivalPos="39.52">
        <route edges="gneE96 gneE97 gneE98"/>
    </vehicle>
    <vehicle id="-flow-random-route-9bafd944-a2e8-46ac-9e2f-19cd59111683--6326688768583334578-1-0.0" type="actor-car--6464489637536069593" depart="0.00" departLane="1" departPos="15.43" departSpeed="max" arrivalLane="0" arrivalPos="47.80">
        <route edges="edge-east-EN gneE95 gneE94 gneE91 gneE92 edge-west-WS edge-south-SE edge-east-EN edge-north-NW -gneE92"/>
    </vehicle>
    <vehicle id="-flow-random-route-ae4cb21e-d490-4474-8a02-d260a2ec60ed--6326688768583334578-9-0.0" type="actor-car--6464489637536069593" depart="0.00" departLane="0" departPos="27.93" departSpeed="max" arrivalLane="0" arrivalPos="5.24">
        <route edges="-gneE91 -gneE94"/>
    </vehicle>
    <vehicle id="-flow-random-route-b2e3e1b3-7b27-46d9-bc83-44b1bb40f8ee--6326688768583334578-8-0.0" type="actor-car--6464489637536069593" depart="0.00" departLane="0" departPos="71.04" departSpeed="max" arrivalLane="0" arrivalPos="42.44">
        <route edges="gneE98 gneE93 gneE94"/>
    </vehicle>
    <vehicle id="-flow-random-route-b46d0142-f08c-4f39-98d5-490a475cf5f0--6326688768583334578-3-0.0" type="actor-car--6464489637536069593" depart="0.00" departLane="0" departPos="55.30" departSpeed="max" arrivalLane="0" arrivalPos="40.57">
        <route edges="edge-east-EN gneE95 -gneE93 -gneE82 -gneE81 edge-east-EN gneE95 gneE94 gneE91 gneE92"/>
    </vehicle>
    <vehicle id="-flow-random-route-b6d34ff4-7a60-481f-83cf-30d28741a0f6--6326688768583334578-27-0.0" type="actor-car--6464489637536069593" depart="0.00" departLane="0" departPos="45.14" departSpeed="max" arrivalLane="0" arrivalPos="41.88">
        <route edges="gneE82 gneE93"/>
    </vehicle>
    <vehicle id="-flow-random-route-bea735a5-2681-4d33-b573-032f416b1791--6326688768583334578-15-0.0" type="actor-car--6464489637536069593" depart="0.00" departLane="0" departPos="107.50" departSpeed="max" arrivalLane="0" arrivalPos="68.96">
        <route edges="gneE96 gneE97"/>
    </vehicle>
    <vehicle id="-flow-random-route-c48c7c8a-cafc-45e0-a756-999a0a739eeb--6326688768583334578-5-0.0" type="actor-car--6464489637536069593" depart="0.00" departLane="0" departPos="6.90" departSpeed="max" arrivalLane="0" arrivalPos="16.24">
        <route edges="gneE81 gneE82 gneE93 -gneE95 edge-north-NW -gneE92 -gneE91 -gneE94 -gneE93 -gneE82"/>
    </vehicle>
    <vehicle id="-flow-random-route-c9e977e8-5bcd-4efb-91e9-f2621f243f0a--6326688768583334578-22-0.0" type="actor-car--6464489637536069593" depart="0.00" departLane="0" departPos="22.28" departSpeed="max" arrivalLane="0" arrivalPos="64.11">
        <route edges="gneE82 gneE93 gneE94 gneE91 gneE92 edge-west-WS"/>
    </vehicle>
    <vehicle id="-flow-random-route-d9335c25-69d2-4088-9897-ef1e315dd591--6326688768583334578-20-0.0" type="actor-car--6464489637536069593" depart="0.00" departLane="0" departPos="65.31" departSpeed="max" arrivalLane="0" arrivalPos="33.60">
        <route edges="gneE95 -gneE93 -gneE82 -gneE81 edge-east-EN gneE95 gneE94 gneE91 gneE92 edge-west-WS"/>
    </vehicle>
    <vehicle id="-flow-random-route-f5484908-3d26-4613-9140-94dc011e0ce8--6326688768583334578-10-0.0" type="actor-car--6464489637536069593" depart="0.00" departLane="0" departPos="50.01" departSpeed="max" arrivalLane="0" arrivalPos="27.74">
        <route edges="-gneE92 -gneE91 -gneE94 -gneE95 edge-north-NW -gneE92 -gneE91 -gneE94 -gneE93 -gneE82"/>
    </vehicle>
    <vehicle id="-flow-random-route-f7fb7692-4732-4729-ac39-7fb046c4e035--6326688768583334578-21-0.0" type="actor-car--6464489637536069593" depart="0.00" departLane="0" departPos="42.41" departSpeed="max" arrivalLane="0" arrivalPos="14.36">
        <route edges="-gneE94 -gneE93 -gneE82 -gneE81 edge-east-EN edge-north-NW -gneE92 -gneE91 -gneE94 -gneE95"/>
    </vehicle>
    <vehicle id="-flow-random-route-faeabd44-b958-4229-9baf-4e14403af410--6326688768583334578-12-0.0" type="actor-car--6464489637536069593" depart="0.00" departLane="0" departPos="22.06" departSpeed="max" arrivalLane="0" arrivalPos="23.91">
        <route edges="-gneE82 -gneE81 edge-east-EN gneE95 gneE94 gneE91 gneE92 edge-west-WS edge-south-SE gneE81"/>
    </vehicle>
    <vehicle id="-flow-random-route-028bea9c-2148-4125-9a3f-f163bba727fd--6326688768583334578-28-0.1" type="actor-car--6464489637536069593" depart="120.00" departLane="0" departPos="48.36" departSpeed="max" arrivalLane="0" arrivalPos="60.41">
        <route edges="gneE91 gneE92 edge-west-WS gneE96 gneE97 gneE98 -gneE82 -gneE81 edge-east-EN gneE95"/>
    </vehicle>
    <vehicle id="-flow-random-route-0c3c08e6-8753-40ea-a613-3a2128e32851--6326688768583334578-17-0.1" type="actor-car--6464489637536069593" depart="120.00" departLane="0" departPos="95.35" departSpeed="max" arrivalLane="0" arrivalPos="93.70">
        <route edges="-gneE91 -gneE94"/>
    </vehicle>
    <vehicle id="-flow-random-route-0da7cb77-7e3a-4df8-aedf-086427d30e16--6326688768583334578-11-0.1" type="actor-car--6464489637536069593" depart="120.00" departLane="0" departPos="25.55" departSpeed="max" arrivalLane="0" arrivalPos="81.07">
        <route edges="-gneE94 -gneE95 edge-north-NW edge-west-WS gneE96 gneE97 gneE98 gneE93 gneE94 gneE91"/>
    </vehicle>
    <vehicle id="-flow-random-route-112ca224-0a60-4ed5-85c3-4fe56973f64c--6326688768583334578-13-0.1" type="actor-car--6464489637536069593" depart="120.00" departLane="0" departPos="30.87" departSpeed="max" arrivalLane="0" arrivalPos="48.51">
        <route edges="edge-north-NW -gneE92 -gneE91 -gneE94 -gneE95 edge-north-NW edge-west-WS gneE96 gneE97 gneE98"/>
    </vehicle>
    <vehicle id="-flow-random-route-181ca5ae-3564-40bf-9679-f8b5e0fedc7b--6326688768583334578-23-0.1" type="actor-car--6464489637536069593" depart="120.00" departLane="0" departPos="29.83" departSpeed="max" arrivalLane="0" arrivalPos="117.42">
        <route edges="edge-south-SE gneE81 gneE82 gneE93 gneE94 gneE91 gneE92 edge-west-WS gneE96 gneE97"/>
    </vehicle>
    <vehicle id="-flow-random-route-1a42b5b1-1eea-4a14-b37f-1e2c86993308--6326688768583334578-29-0.1" type="actor-car--6464489637536069593" depart="120.00" departLane="0" departPos="12.00" departSpeed="max" arrivalLane="0" arrivalPos="2.18">
        <route edges="-gneE95 edge-north-NW edge-west-WS edge-south-SE gneE81 gneE82 gneE93 -gneE95 edge-north-NW -gneE92"/>
    </vehicle>
    <vehicle id="-flow-random-route-1dcd18a7-2771-4d45-92fc-edf2eebb2ad9--6326688768583334578-19-0.1" type="actor-car--6464489637536069593" depart="120.00" departLane="0" departPos="88.80" departSpeed="max" arrivalLane="0" arrivalPos="24.10">
        <route edges="gneE97 gneE98 -gneE82 -gneE81 edge-east-EN gneE95 gneE94 gneE91 gneE92 edge-west-WS"/>
    </vehicle>
    <vehicle id="-flow-random-route-1fa1bb0c-493b-48bf-9d5d-029a6630f2c8--6326688768583334578-24-0.1" type="actor-car--6464489637536069593" depart="120.00" departLane="0" departPos="36.38" departSpeed="max" arrivalLane="0" arrivalPos="87.01">
        <route edges="-gneE91 -gneE94"/>
    </vehicle>
    <vehicle id="-flow-random-route-2dad69a9-ff95-4e19-872f-e476c0809e33--6326688768583334578-4-0.1" type="actor-car--6464489637536069593" depart="120.00" departLane="1" departPos="9.87" departSpeed="max" arrivalLane="0" arrivalPos="70.42">
        <route edges="edge-north-NW edge-west-WS edge-south-SE gneE81 gneE82 gneE93 -gneE95 edge-north-NW -gneE92 -gneE91"/>
    </vehicle>
    <vehicle id="-flow-random-route-3cc78026-e7ce-4398-9983-e55c3b67c27b--6326688768583334578-26-0.1" type="actor-car--6464489637536069593" depart="120.00" departLane="0" departPos="40.48" departSpeed="max" arrivalLane="0" arrivalPos="12.69">
        <route edges="gneE91 gneE92 edge-west-WS gneE96 gneE97 gneE98 gneE93 -gneE95 edge-north-NW -gneE92"/>
    </vehicle>
    <vehicle id="-flow-random-route-4234539d-a0f7-4b9d-962a-5aa27f51321b--6326688768583334578-6-0.1" type="actor-car--6464489637536069593" depart="120.00" departLane="0" departPos="49.50" departSpeed="max" arrivalLane="0" arrivalPos="81.65">
        <route edges="-gneE95 edge-north-NW -gneE92 -gneE91 -gneE94"/>
    </vehicle>
    <vehicle id="-flow-random-route-4e958fa4-7f34-4db8-b102-a387c188216b--6326688768583334578-18-0.1" type="actor-car--6464489637536069593" depart="120.00" departLane="0" departPos="0.84" departSpeed="max" arrivalLane="0" arrivalPos="13.03">
        <route edges="gneE82 gneE93 -gneE95 edge-north-NW -gneE92"/>
    </vehicle>
    <vehicle id="-flow-random-route-5799aaf5-f4b4-4300-9494-bcbda5516d87--6326688768583334578-0-0.1" type="actor-car--6464489637536069593" depart="120.00" departLane="0" departPos="82.74" departSpeed="max" arrivalLane="0" arrivalPos="11.84">
        <route edges="gneE98 -gneE82"/>
    </vehicle>
    <vehicle id="-flow-random-route-5ae99033-f9f6-4e7b-a90c-ec91ea38f0d9--6326688768583334578-25-0.1" type="actor-car--6464489637536069593" depart="120.00" departLane="1" departPos="12.47" departSpeed="max" arrivalLane="0" arrivalPos="47.16">
        <route edges="edge-east-EN edge-north-NW -gneE92 -gneE91 -gneE94 -gneE93 -gneE82 -gneE81 edge-east-EN gneE95"/>
    </vehicle>
    <vehicle id="-flow-random-route-5fb59b80-c702-4f1a-bac3-099ed45b788f--6326688768583334578-16-0.1" type="actor-car--6464489637536069593" depart="120.00" departLane="0" departPos="53.67" departSpeed="max" arrivalLane="1" arrivalPos="40.32">
        <route edges="-gneE91 -gneE94 -gneE93 -gneE82 -gneE81 edge-east-EN"/>
    </vehicle>
    <vehicle id="-flow-random-route-83449bd9-5427-404e-b660-e0b33ef5be1d--6326688768583334578-14-0.1" type="actor-car--6464489637536069593" depart="120.00" departLane="0" departPos="70.51" departSpeed="max" arrivalLane="0" arrivalPos="62.82">
        <route edges="-gneE94 -gneE93"/>
    </vehicle>
    <vehicle id="-flow-random-route-923e3c2b-c086-4700-afe5-28c2d513d2e8--6326688768583334578-2-0.1" type="actor-car--6464489637536069593" depart="120.00" departLane="0" departPos="67.74" departSpeed="max" arrivalLane="0" arrivalPos="1.57">
        <route edges="gneE82 gneE93 -gneE95 edge-north-NW edge-west-WS gneE96 gneE97 gneE98 -gneE82 -gneE81"/>
    </vehicle>
    <vehicle id="-flow-random-route-9892d192-75b9-4308-bbba-9a159d83498f--6326688768583334578-7-0.1" type="actor-car--6464489637536069593" depart="120.00" departLane="1" departPos="20.84" departSpeed="max" arrivalLane="1" arrivalPos="39.52">
        <route edges="gneE96 gneE97 gneE98"/>
    </vehicle>
    <vehicle id="-flow-random-route-9bafd944-a2e8-46ac-9e2f-19cd59111683--6326688768583334578-1-0.1" type="actor-car--6464489637536069593" depart="120.00" departLane="1" departPos="15.43" departSpeed="max" arrivalLane="0" arrivalPos="47.80">
        <route edges="edge-east-EN gneE95 gneE94 gneE91 gneE92 edge-west-WS edge-south-SE edge-east-EN edge-north-NW -gneE92"/>
    </vehicle>
    <vehicle id="-flow-random-route-ae4cb21e-d490-4474-8a02-d260a2ec60ed--6326688768583334578-9-0.1" type="actor-car--6464489637536069593" depart="120.00" departLane="0" departPos="27.93" departSpeed="max" arrivalLane="0" arrivalPos="5.24">
        <route edges="-gneE91 -gneE94"/>
    </vehicle>
    <vehicle id="-flow-random-route-b2e3e1b3-7b27-46d9-bc83-44b1bb40f8ee--6326688768583334578-8-0.1" type="actor-car--6464489637536069593" depart="120.00" departLane="0" departPos="71.04" departSpeed="max" arrivalLane="0" arrivalPos="42.44">
        <route edges="gneE98 gneE93 gneE94"/>
    </vehicle>
    <vehicle id="-flow-random-route-b46d0142-f08c-4f39-98d5-490a475cf5f0--6326688768583334578-3-0.1" type="actor-car--6464489637536069593" depart="120.00" departLane="0" departPos="55.30" departSpeed="max" arrivalLane="0" arrivalPos="40.57">
        <route edges="edge-east-EN gneE95 -gneE93 -gneE82 -gneE81 edge-east-EN gneE95 gneE94 gneE91 gneE92"/>
    </vehicle>
    <vehicle id="-flow-random-route-b6d34ff4-7a60-481f-83cf-30d28741a0f6--6326688768583334578-27-0.1" type="actor-car--6464489637536069593" depart="120.00" departLane="0" departPos="45.14" departSpeed="max" arrivalLane="0" arrivalPos="41.88">
        <route edges="gneE82 gneE93"/>
    </vehicle>
    <vehicle id="-flow-random-route-bea735a5-2681-4d33-b573-032f416b1791--6326688768583334578-15-0.1" type="actor-car--6464489637536069593" depart="120.00" departLane="0" departPos="107.50" departSpeed="max" arrivalLane="0" arrivalPos="68.96">
        <route edges="gneE96 gneE97"/>
    </vehicle>
    <vehicle id="-flow-random-route-c48c7c8a-cafc-45e0-a756-999a0a739eeb--6326688768583334578-5-0.1" type="actor-car--6464489637536069593" depart="120.00" departLane="0" departPos="6.90" departSpeed="max" arrivalLane="0" arrivalPos="16.24">
        <route edges="gneE81 gneE82 gneE93 -gneE95 edge-north-NW -gneE92 -gneE91 -gneE94 -gneE93 -gneE82"/>
    </vehicle>
    <vehicle id="-flow-random-route-c9e977e8-5bcd-4efb-91e9-f2621f243f0a--6326688768583334578-22-0.1" type="actor-car--6464489637536069593" depart="120.00" departLane="0" departPos="22.28" departSpeed="max" arrivalLane="0" arrivalPos="64.11">
        <route edges="gneE82 gneE93 gneE94 gneE91 gneE92 edge-west-WS"/>
    </vehicle>
    <vehicle id="-flow-random-route-d9335c25-69d2-4088-9897-ef1e315dd591--6326688768583334578-20-0.1" type="actor-car--6464489637536069593" depart="120.00" departLane="0" departPos="65.31" departSpeed="max" arrivalLane="0" arrivalPos="33.60">
        <route edges="gneE95 -gneE93 -gneE82 -gneE81 edge-east-EN gneE95 gneE94 gneE91 gneE92 edge-west-WS"/>
    </vehicle>
    <vehicle id="-flow-random-route-f5484908-3d26-4613-9140-94dc011e0ce8--6326688768583334578-10-0.1" type="actor-car--6464489637536069593" depart="120.00" departLane="0" departPos="50.01" departSpeed="max" arrivalLane="0" arrivalPos="27.74">
        <route edges="-gneE92 -gneE91 -gneE94 -gneE95 edge-north-NW -gneE92 -gneE91 -gneE94 -gneE93 -gneE82"/>
    </vehicle>
    <vehicle id="-flow-random-route-f7fb7692-4732-4729-ac39-7fb046c4e035--6326688768583334578-21-0.1" type="actor-car--6464489637536069593" depart="120.00" departLane="0" departPos="42.41" departSpeed="max" arrivalLane="0" arrivalPos="14.36">
        <route edges="-gneE94 -gneE93 -gneE82 -gneE81 edge-east-EN edge-north-NW -gneE92 -gneE91 -gneE94 -gneE95"/>
    </vehicle>
    <vehicle id="-flow-random-route-faeabd44-b958-4229-9baf-4e14403af410--6326688768583334578-12-0.1" type="actor-car--6464489637536069593" depart="120.00" departLane="0" departPos="22.06" departSpeed="max" arrivalLane="0" arrivalPos="23.91">
        <route edges="-gneE82 -gneE81 edge-east-EN gneE95 gneE94 gneE91 gneE92 edge-west-WS edge-south-SE gneE81"/>
    </vehicle>
    <vehicle id="-flow-random-route-028bea9c-2148-4125-9a3f-f163bba727fd--6326688768583334578-28-0.2" type="actor-car--6464489637536069593" depart="240.00" departLane="0" departPos="48.36" departSpeed="max" arrivalLane="0" arrivalPos="60.41">
        <route edges="gneE91 gneE92 edge-west-WS gneE96 gneE97 gneE98 -gneE82 -gneE81 edge-east-EN gneE95"/>
    </vehicle>
    <vehicle id="-flow-random-route-0c3c08e6-8753-40ea-a613-3a2128e32851--6326688768583334578-17-0.2" type="actor-car--6464489637536069593" depart="240.00" departLane="0" departPos="95.35" departSpeed="max" arrivalLane="0" arrivalPos="93.70">
        <route edges="-gneE91 -gneE94"/>
    </vehicle>
    <vehicle id="-flow-random-route-0da7cb77-7e3a-4df8-aedf-086427d30e16--6326688768583334578-11-0.2" type="actor-car--6464489637536069593" depart="240.00" departLane="0" departPos="25.55" departSpeed="max" arrivalLane="0" arrivalPos="81.07">
        <route edges="-gneE94 -gneE95 edge-north-NW edge-west-WS gneE96 gneE97 gneE98 gneE93 gneE94 gneE91"/>
    </vehicle>
    <vehicle id="-flow-random-route-112ca224-0a60-4ed5-85c3-4fe56973f64c--6326688768583334578-13-0.2" type="actor-car--6464489637536069593" depart="240.00" departLane="0" departPos="30.87" departSpeed="max" arrivalLane="0" arrivalPos="48.51">
        <route edges="edge-north-NW -gneE92 -gneE91 -gneE94 -gneE95 edge-north-NW edge-west-WS gneE96 gneE97 gneE98"/>
    </vehicle>
    <vehicle id="-flow-random-route-181ca5ae-3564-40bf-9679-f8b5e0fedc7b--6326688768583334578-23-0.2" type="actor-car--6464489637536069593" depart="240.00" departLane="0" departPos="29.83" departSpeed="max" arrivalLane="0" arrivalPos="117.42">
        <route edges="edge-south-SE gneE81 gneE82 gneE93 gneE94 gneE91 gneE92 edge-west-WS gneE96 gneE97"/>
    </vehicle>
    <vehicle id="-flow-random-route-1a42b5b1-1eea-4a14-b37f-1e2c86993308--6326688768583334578-29-0.2" type="actor-car--6464489637536069593" depart="240.00" departLane="0" departPos="12.00" departSpeed="max" arrivalLane="0" arrivalPos="2.18">
        <route edges="-gneE95 edge-north-NW edge-west-WS edge-south-SE gneE81 gneE82 gneE93 -gneE95 edge-north-NW -gneE92"/>
    </vehicle>
    <vehicle id="-flow-random-route-1dcd18a7-2771-4d45-92fc-edf2eebb2ad9--6326688768583334578-19-0.2" type="actor-car--6464489637536069593" depart="240.00" departLane="0" departPos="88.80" departSpeed="max" arrivalLane="0" arrivalPos="24.10">
        <route edges="gneE97 gneE98 -gneE82 -gneE81 edge-east-EN gneE95 gneE94 gneE91 gneE92 edge-west-WS"/>
    </vehicle>
    <vehicle id="-flow-random-route-1fa1bb0c-493b-48bf-9d5d-029a6630f2c8--6326688768583334578-24-0.2" type="actor-car--6464489637536069593" depart="240.00" departLane="0" departPos="36.38" departSpeed="max" arrivalLane="0" arrivalPos="87.01">
        <route edges="-gneE91 -gneE94"/>
    </vehicle>
    <vehicle id="-flow-random-route-2dad69a9-ff95-4e19-872f-e476c0809e33--6326688768583334578-4-0.2" type="actor-car--6464489637536069593" depart="240.00" departLane="1" departPos="9.87" departSpeed="max" arrivalLane="0" arrivalPos="70.42">
        <route edges="edge-north-NW edge-west-WS edge-south-SE gneE81 gneE82 gneE93 -gneE95 edge-north-NW -gneE92 -gneE91"/>
    </vehicle>
    <vehicle id="-flow-random-route-3cc78026-e7ce-4398-9983-e55c3b67c27b--6326688768583334578-26-0.2" type="actor-car--6464489637536069593" depart="240.00" departLane="0" departPos="40.48" departSpeed="max" arrivalLane="0" arrivalPos="12.69">
        <route edges="gneE91 gneE92 edge-west-WS gneE96 gneE97 gneE98 gneE93 -gneE95 edge-north-NW -gneE92"/>
    </vehicle>
    <vehicle id="-flow-random-route-4234539d-a0f7-4b9d-962a-5aa27f51321b--6326688768583334578-6-0.2" type="actor-car--6464489637536069593" depart="240.00" departLane="0" departPos="49.50" departSpeed="max" arrivalLane="0" arrivalPos="81.65">
        <route edges="-gneE95 edge-north-NW -gneE92 -gneE91 -gneE94"/>
    </vehicle>
    <vehicle id="-flow-random-route-4e958fa4-7f34-4db8-b102-a387c188216b--6326688768583334578-18-0.2" type="actor-car--6464489637536069593" depart="240.00" departLane="0" departPos="0.84" departSpeed="max" arrivalLane="0" arrivalPos="13.03">
        <route edges="gneE82 gneE93 -gneE95 edge-north-NW -gneE92"/>
    </vehicle>
    <vehicle id="-flow-random-route-5799aaf5-f4b4-4300-9494-bcbda5516d87--6326688768583334578-0-0.2" type="actor-car--6464489637536069593" depart="240.00" departLane="0" departPos="82.74" departSpeed="max" arrivalLane="0" arrivalPos="11.84">
        <route edges="gneE98 -gneE82"/>
    </vehicle>
    <vehicle id="-flow-random-route-5ae99033-f9f6-4e7b-a90c-ec91ea38f0d9--6326688768583334578-25-0.2" type="actor-car--6464489637536069593" depart="240.00" departLane="1" departPos="12.47" departSpeed="max" arrivalLane="0" arrivalPos="47.16">
        <route edges="edge-east-EN edge-north-NW -gneE92 -gneE91 -gneE94 -gneE93 -gneE82 -gneE81 edge-east-EN gneE95"/>
    </vehicle>
    <vehicle id="-flow-random-route-5fb59b80-c702-4f1a-bac3-099ed45b788f--6326688768583334578-16-0.2" type="actor-car--6464489637536069593" depart="240.00" departLane="0" departPos="53.67" departSpeed="max" arrivalLane="1" arrivalPos="40.32">
        <route edges="-gneE91 -gneE94 -gneE93 -gneE82 -gneE81 edge-east-EN"/>
    </vehicle>
    <vehicle id="-flow-random-route-83449bd9-5427-404e-b660-e0b33ef5be1d--6326688768583334578-14-0.2" type="actor-car--6464489637536069593" depart="240.00" departLane="0" departPos="70.51" departSpeed="max" arrivalLane="0" arrivalPos="62.82">
        <route edges="-gneE94 -gneE93"/>
    </vehicle>
    <vehicle id="-flow-random-route-923e3c2b-c086-4700-afe5-28c2d513d2e8--6326688768583334578-2-0.2" type="actor-car--6464489637536069593" depart="240.00" departLane="0" departPos="67.74" departSpeed="max" arrivalLane="0" arrivalPos="1.57">
        <route edges="gneE82 gneE93 -gneE95 edge-north-NW edge-west-WS gneE96 gneE97 gneE98 -gneE82 -gneE81"/>
    </vehicle>
    <vehicle id="-flow-random-route-9892d192-75b9-4308-bbba-9a159d83498f--6326688768583334578-7-0.2" type="actor-car--6464489637536069593" depart="240.00" departLane="1" departPos="20.84" departSpeed="max" arrivalLane="1" arrivalPos="39.52">
        <route edges="gneE96 gneE97 gneE98"/>
    </vehicle>
    <vehicle id="-flow-random-route-9bafd944-a2e8-46ac-9e2f-19cd59111683--6326688768583334578-1-0.2" type="actor-car--6464489637536069593" depart="240.00" departLane="1" departPos="15.43" departSpeed="max" arrivalLane="0" arrivalPos="47.80">
        <route edges="edge-east-EN gneE95 gneE94 gneE91 gneE92 edge-west-WS edge-south-SE edge-east-EN edge-north-NW -gneE92"/>
    </vehicle>
    <vehicle id="-flow-random-route-ae4cb21e-d490-4474-8a02-d260a2ec60ed--6326688768583334578-9-0.2" type="actor-car--6464489637536069593" depart="240.00" departLane="0" departPos="27.93" departSpeed="max" arrivalLane="0" arrivalPos="5.24">
        <route edges="-gneE91 -gneE94"/>
    </vehicle>
    <vehicle id="-flow-random-route-b2e3e1b3-7b27-46d9-bc83-44b1bb40f8ee--6326688768583334578-8-0.2" type="actor-car--6464489637536069593" depart="240.00" departLane="0" departPos="71.04" departSpeed="max" arrivalLane="0" arrivalPos="42.44">
        <route edges="gneE98 gneE93 gneE94"/>
    </vehicle>
    <vehicle id="-flow-random-route-b46d0142-f08c-4f39-98d5-490a475cf5f0--6326688768583334578-3-0.2" type="actor-car--6464489637536069593" depart="240.00" departLane="0" departPos="55.30" departSpeed="max" arrivalLane="0" arrivalPos="40.57">
        <route edges="edge-east-EN gneE95 -gneE93 -gneE82 -gneE81 edge-east-EN gneE95 gneE94 gneE91 gneE92"/>
    </vehicle>
    <vehicle id="-flow-random-route-b6d34ff4-7a60-481f-83cf-30d28741a0f6--6326688768583334578-27-0.2" type="actor-car--6464489637536069593" depart="240.00" departLane="0" departPos="45.14" departSpeed="max" arrivalLane="0" arrivalPos="41.88">
        <route edges="gneE82 gneE93"/>
    </vehicle>