<?xml version="1.0" encoding="UTF-8"?>

<!-- generated on Sat Sep  5 16:48:21 2020 by Eclipse SUMO duarouter Version 1.6.0
<configuration xmlns:xsi="http://www.w3.org/2001/XMLSchema-instance" xsi:noNamespaceSchemaLocation="http://sumo.dlr.de/xsd/duarouterConfiguration.xsd">

    <input>
        <net-file value="../dataset_public/all_loop/all_loop_a/map.net.xml"/>
        <route-files value="/tmp/tmpkyx60fhk/trips.trips.xml"/>
    </input>

    <output>
        <output-file value="../dataset_public/all_loop/all_loop_a/traffic/30_patient_car.rou.xml"/>
        <alternatives-output value="../dataset_public/all_loop/all_loop_a/traffic/30_patient_car.rou.alt.xml"/>
    </output>

    <processing>
        <unsorted-input value="true"/>
        <repair value="true"/>
    </processing>

    <report>
        <error-log value="/tmp/smarts/_duarouter_routing/traffic/30_patient_car.log"/>
        <no-step-log value="true"/>
    </report>

    <random_number>
        <seed value="42"/>
    </random_number>

</configuration>
-->

<routes xmlns:xsi="http://www.w3.org/2001/XMLSchema-instance" xsi:noNamespaceSchemaLocation="http://sumo.dlr.de/xsd/routes_file.xsd">
    <vType id="actor-car-2354069905701371636" minGap="2.50" speedFactor="normc(0.50,0.20,0.20,2.00)" vClass="passenger" impatience="0.50" lcCooperative="0.5" lcImpatience="0" jmDriveAfterYellowTime="1.0" accel="2.6" decel="4.5" sigma="0.5"/>
    <vehicle id="-flow-random-route-0abf76ad-9310-4187-aff6-e2417aa404b4--1767290595424085322-8-0.0" type="actor-car-2354069905701371636" depart="0.00" departLane="0" departPos="11.08" departSpeed="max" arrivalLane="0" arrivalPos="43.83">
        <route edges="edge-north-NW edge-west-WS edge-south-SE edge-east-EN edge-north-NW edge-west-WS gneE143 gneE144 gneE124 gneE124.71"/>
    </vehicle>
    <vehicle id="-flow-random-route-0b9cad59-fffb-4b6f-b684-64c747d0a59a--1767290595424085322-5-0.0" type="actor-car-2354069905701371636" depart="0.00" departLane="0" departPos="49.79" departSpeed="max" arrivalLane="0" arrivalPos="2.95">
        <route edges="gneE138 gneE104 gneE105 edge-west-WS edge-south-SE edge-east-EN"/>
    </vehicle>
    <vehicle id="-flow-random-route-1947759a-947c-4208-a5b9-bf9b0d1c30e9--1767290595424085322-2-0.0" type="actor-car-2354069905701371636" depart="0.00" departLane="0" departPos="53.80" departSpeed="max" arrivalLane="0" arrivalPos="7.20">
        <route edges="gneE124.71 gneE135 gneE137 gneE138 gneE104 gneE105 edge-west-WS gneE143 gneE145 gneE146"/>
    </vehicle>
    <vehicle id="-flow-random-route-1b5e0287-1f2e-4950-b86a-7996c40cb779--1767290595424085322-13-0.0" type="actor-car-2354069905701371636" depart="0.00" departLane="0" departPos="21.09" departSpeed="max" arrivalLane="0" arrivalPos="54.14">
        <route edges="gneE114 gneE125 gneE129 gneE137 gneE138 -gneE110 gneE135 -gneE129 -gneE125 -gneE114"/>
    </vehicle>
    <vehicle id="-flow-random-route-1c973988-418d-4510-8adb-d8da73e26c1c--1767290595424085322-12-0.0" type="actor-car-2354069905701371636" depart="0.00" departLane="0" departPos="30.81" departSpeed="max" arrivalLane="0" arrivalPos="9.50">
        <route edges="edge-south-SE edge-east-EN edge-north-NW edge-west-WS gneE143 gneE144 gneE124 gneE124.71 gneE110 gneE140"/>
    </vehicle>
    <vehicle id="-flow-random-route-1cbf649e-78c8-43f2-9094-654d63e46f32--1767290595424085322-19-0.0" type="actor-car-2354069905701371636" depart="0.00" departLane="0" departPos="15.02" departSpeed="max" arrivalLane="0" arrivalPos="21.79">
        <route edges="gneE145 gneE146 gneE161 gneE164 gneE124.71 gneE135 gneE137 gneE138 gneE104 gneE105"/>
    </vehicle>
    <vehicle id="-flow-random-route-22abcb02-4766-49ac-899d-b2a2c19f28e8--1767290595424085322-16-0.0" type="actor-car-2354069905701371636" depart="0.00" departLane="1" departPos="64.96" departSpeed="max" arrivalLane="1" arrivalPos="39.29">
        <route edges="gneE100 gneE91 edge-east-EN edge-north-NW edge-west-WS edge-south-SE edge-east-EN edge-north-NW edge-west-WS gneE143"/>
    </vehicle>
    <vehicle id="-flow-random-route-29f99ef8-1f9f-453f-82b1-b7348fb998e6--1767290595424085322-17-0.0" type="actor-car-2354069905701371636" depart="0.00" departLane="1" departPos="85.84" departSpeed="max" arrivalLane="0" arrivalPos="55.00">
        <route edges="gneE105 edge-west-WS gneE143 gneE144 gneE124 gneE124.71 gneE114 gneE125 gneE129 -gneE135"/>
    </vehicle>
    <vehicle id="-flow-random-route-3f303d30-2c82-443b-833f-d78925348f3c--1767290595424085322-24-0.0" type="actor-car-2354069905701371636" depart="0.00" departLane="0" departPos="53.29" departSpeed="max" arrivalLane="0" arrivalPos="75.48">
        <route edges="gneE100 gneE91 edge-east-EN edge-north-NW edge-west-WS gneE143 gneE145 gneE146 gneE148 -gneE114"/>
    </vehicle>
    <vehicle id="-flow-random-route-46c088d2-716c-4f84-97e4-3bb7f8277837--1767290595424085322-20-0.0" type="actor-car-2354069905701371636" depart="0.00" departLane="0" departPos="122.31" departSpeed="max" arrivalLane="0" arrivalPos="45.19">
        <route edges="-gneE110 gneE135 -gneE129 -gneE125 -gneE114 gneE135 gneE137 gneE138 gneE104 gneE105"/>
    </vehicle>
    <vehicle id="-flow-random-route-6f863119-691e-41d9-9fbc-34eff81e3924--1767290595424085322-1-0.0" type="actor-car-2354069905701371636" depart="0.00" departLane="0" departPos="111.79" departSpeed="max" arrivalLane="0" arrivalPos="23.10">
        <route edges="-gneE137 -gneE129 -gneE125 -gneE114"/>
    </vehicle>
    <vehicle id="-flow-random-route-752605fc-42b0-4688-98c4-8e11db795c3f--1767290595424085322-14-0.0" type="actor-car-2354069905701371636" depart="0.00" departLane="0" departPos="21.79" departSpeed="max" arrivalLane="0" arrivalPos="66.21">
        <route edges="-gneE140 gneE104 gneE105 edge-west-WS gneE143 gneE145 gneE146 gneE148 -gneE114 -gneE124"/>
    </vehicle>
    <vehicle id="-flow-random-route-7f6f23d1-3db6-4bfc-a8a4-70310cdd0566--1767290595424085322-25-0.0" type="actor-car-2354069905701371636" depart="0.00" departLane="1" departPos="7.78" departSpeed="max" arrivalLane="1" arrivalPos="5.64">
        <route edges="gneE104 gneE105 edge-west-WS gneE143 gneE145 gneE146 gneE161 gneE162 gneE100 gneE91"/>
    </vehicle>
    <vehicle id="-flow-random-route-7fb860af-3323-44b2-9707-f14f24aefafb--1767290595424085322-15-0.0" type="actor-car-2354069905701371636" depart="0.00" departLane="0" departPos="67.76" departSpeed="max" arrivalLane="1" arrivalPos="29.97">
        <route edges="gneE138 -gneE110 gneE135 -gneE129 -gneE125 -gneE114 -gneE124 gneE100 gneE91 edge-east-EN"/>
    </vehicle>
    <vehicle id="-flow-random-route-84270fae-5ff9-419e-99f4-d3e77186ccd9--1767290595424085322-11-0.0" type="actor-car-2354069905701371636" depart="0.00" departLane="0" departPos="1.73" departSpeed="max" arrivalLane="1" arrivalPos="7.27">
        <route edges="gneE91 edge-east-EN -gneE140 -gneE138 -gneE137 -gneE135 gneE110 gneE140 edge-north-NW edge-west-WS"/>
    </vehicle>
    <vehicle id="-flow-random-route-84710982-052a-4c0a-a613-eed077ec4fee--1767290595424085322-7-0.0" type="actor-car-2354069905701371636" depart="0.00" departLane="0" departPos="47.44" departSpeed="max" arrivalLane="0" arrivalPos="50.54">
        <route edges="gneE124 gneE124.71 gneE114 gneE125"/>
    </vehicle>
    <vehicle id="-flow-random-route-847bed4f-26d9-4f81-b7d3-f214a9df1170--1767290595424085322-26-0.0" type="actor-car-2354069905701371636" depart="0.00" departLane="0" departPos="6.07" departSpeed="max" arrivalLane="0" arrivalPos="91.54">
        <route edges="gneE144 gneE100 gneE91 edge-east-EN -gneE140 -gneE138 -gneE137 -gneE129 -gneE125 -gneE114"/>
    </vehicle>
    <vehicle id="-flow-random-route-935dbda9-75b5-4bc3-b3a0-9fcf9cba25b2--1767290595424085322-6-0.0" type="actor-car-2354069905701371636" depart="0.00" departLane="0" departPos="0.41" departSpeed="max" arrivalLane="0" arrivalPos="1.84">
        <route edges="gneE140 edge-north-NW edge-west-WS edge-south-SE edge-east-EN -gneE140 -gneE110 -gneE124 gneE100 gneE91"/>
    </vehicle>
    <vehicle id="-flow-random-route-97e8e14f-ad6f-4042-8d60-84bfc527de83--1767290595424085322-4-0.0" type="actor-car-2354069905701371636" depart="0.00" departLane="0" departPos="55.81" departSpeed="max" arrivalLane="0" arrivalPos="32.44">
        <route edges="gneE129 -gneE135"/>
    </vehicle>
    <vehicle id="-flow-random-route-9d825014-be67-4800-a512-3179e41a622f--1767290595424085322-10-0.0" type="actor-car-2354069905701371636" depart="0.00" departLane="0" departPos="80.10" departSpeed="max" arrivalLane="1" arrivalPos="29.06">
        <route edges="-gneE129 -gneE125 -gneE114 gneE135 gneE137 gneE138 gneE140 edge-north-NW edge-west-WS gneE143"/>
    </vehicle>
    <vehicle id="-flow-random-route-b7a81787-96ea-4980-afc8-dd7ae83a4045--1767290595424085322-29-0.0" type="actor-car-2354069905701371636" depart="0.00" departLane="1" departPos="21.25" departSpeed="max" arrivalLane="1" arrivalPos="1.05">
        <route edges="gneE105 edge-west-WS gneE143 gneE145 gneE146 gneE148 -gneE114 -gneE124 gneE100 gneE91"/>
    </vehicle>
    <vehicle id="-flow-random-route-b8574d32-b799-4eac-8909-abfdfbcfb603--1767290595424085322-18-0.0" type="actor-car-2354069905701371636" depart="0.00" departLane="1" departPos="33.12" departSpeed="max" arrivalLane="0" arrivalPos="19.84">
        <route edges="gneE143 gneE145 gneE146 gneE148 gneE125 gneE129 gneE137 gneE138 gneE104 gneE105"/>
    </vehicle>
    <vehicle id="-flow-random-route-b9892994-0320-4c74-8008-73e9a1916f45--1767290595424085322-27-0.0" type="actor-car-2354069905701371636" depart="0.00" departLane="1" departPos="35.27" departSpeed="max" arrivalLane="0" arrivalPos="77.10">
        <route edges="gneE104 gneE105 edge-west-WS gneE143 gneE145 gneE146 gneE161 gneE164 gneE124.71 gneE110"/>
    </vehicle>
    <vehicle id="-flow-random-route-badf5e2a-90fa-4ba6-8731-be8de0a2a33f--1767290595424085322-9-0.0" type="actor-car-2354069905701371636" depart="0.00" departLane="0" departPos="31.41" departSpeed="max" arrivalLane="0" arrivalPos="63.93">
        <route edges="gneE145 gneE146 gneE148 gneE125 gneE129 gneE137 gneE138 gneE140 edge-north-NW edge-west-WS"/>
    </vehicle>
    <vehicle id="-flow-random-route-be62de66-9d58-4f22-9461-cecb487b7b29--1767290595424085322-21-0.0" type="actor-car-2354069905701371636" depart="0.00" departLane="1" departPos="20.49" departSpeed="max" arrivalLane="0" arrivalPos="8.84">
        <route edges="gneE161 gneE162 gneE124 gneE124.71 gneE114 gneE125 gneE129 gneE137 gneE138 gneE140"/>
    </vehicle>
    <vehicle id="-flow-random-route-c6035b85-fc38-43bb-b4b3-d2b557680e90--1767290595424085322-23-0.0" type="actor-car-2354069905701371636" depart="0.00" departLane="0" departPos="14.67" departSpeed="max" arrivalLane="1" arrivalPos="1.13">
        <route edges="gneE135 gneE137 gneE138 gneE140 edge-north-NW edge-west-WS gneE143 gneE144 gneE100 gneE91"/>
    </vehicle>
    <vehicle id="-flow-random-route-cb56d72c-452e-4342-a32a-48e3ac524a5c--1767290595424085322-3-0.0" type="actor-car-2354069905701371636" depart="0.00" departLane="0" departPos="46.10" departSpeed="max" arrivalLane="1" arrivalPos="10.42">
        <route edges="gneE100 gneE91 edge-east-EN"/>
    </vehicle>
    <vehicle id="-flow-random-route-df628904-ded5-4f93-8279-e81f8fd86f65--1767290595424085322-22-0.0" type="actor-car-2354069905701371636" depart="0.00" departLane="1" departPos="12.70" departSpeed="max" arrivalLane="1" arrivalPos="4.15">
        <route edges="edge-west-WS edge-south-SE edge-east-EN edge-north-NW edge-west-WS edge-south-SE edge-east-EN edge-north-NW edge-west-WS gneE143"/>
    </vehicle>
    <vehicle id="-flow-random-route-e89a4091-6d17-4cde-9acb-5cd360304e37--1767290595424085322-0-0.0" type="actor-car-2354069905701371636" depart="0.00" departLane="0" departPos="111.08" departSpeed="max" arrivalLane="0" arrivalPos="56.32">
        <route edges="gneE148 gneE125 gneE129 -gneE135 gneE114 gneE125 gneE129 -gneE135 -gneE124 gneE100"/>
    </vehicle>
    <vehicle id="-flow-random-route-fc0cd95b-b8a0-4f00-b14a-03fa231f2bc6--1767290595424085322-28-0.0" type="actor-car-2354069905701371636" depart="0.00" departLane="0" departPos="23.83" departSpeed="max" arrivalLane="0" arrivalPos="82.00">
        <route edges="-gneE124 gneE100 gneE91 edge-east-EN edge-north-NW edge-west-WS gneE143 gneE145 gneE146 gneE148"/>
    </vehicle>
    <vehicle id="-flow-random-route-0abf76ad-9310-4187-aff6-e2417aa404b4--1767290595424085322-8-0.1" type="actor-car-2354069905701371636" depart="120.00" departLane="0" departPos="11.08" departSpeed="max" arrivalLane="0" arrivalPos="43.83">
        <route edges="edge-north-NW edge-west-WS edge-south-SE edge-east-EN edge-north-NW edge-west-WS gneE143 gneE144 gneE124 gneE124.71"/>
    </vehicle>
    <vehicle id="-flow-random-route-0b9cad59-fffb-4b6f-b684-64c747d0a59a--1767290595424085322-5-0.1" type="actor-car-2354069905701371636" depart="120.00" departLane="0" departPos="49.79" departSpeed="max" arrivalLane="0" arrivalPos="2.95">
        <route edges="gneE138 gneE104 gneE105 edge-west-WS edge-south-SE edge-east-EN"/>
    </vehicle>
    <vehicle id="-flow-random-route-1947759a-947c-4208-a5b9-bf9b0d1c30e9--1767290595424085322-2-0.1" type="actor-car-2354069905701371636" depart="120.00" departLane="0" departPos="53.80" departSpeed="max" arrivalLane="0" arrivalPos="7.20">
        <route edges="gneE124.71 gneE135 gneE137 gneE138 gneE104 gneE105 edge-west-WS gneE143 gneE145 gneE146"/>
    </vehicle>
    <vehicle id="-flow-random-route-1b5e0287-1f2e-4950-b86a-7996c40cb779--1767290595424085322-13-0.1" type="actor-car-2354069905701371636" depart="120.00" departLane="0" departPos="21.09" departSpeed="max" arrivalLane="0" arrivalPos="54.14">
        <route edges="gneE114 gneE125 gneE129 gneE137 gneE138 -gneE110 gneE135 -gneE129 -gneE125 -gneE114"/>
    </vehicle>
    <vehicle id="-flow-random-route-1c973988-418d-4510-8adb-d8da73e26c1c--1767290595424085322-12-0.1" type="actor-car-2354069905701371636" depart="120.00" departLane="0" departPos="30.81" departSpeed="max" arrivalLane="0" arrivalPos="9.50">
        <route edges="edge-south-SE edge-east-EN edge-north-NW edge-west-WS gneE143 gneE144 gneE124 gneE124.71 gneE110 gneE140"/>
    </vehicle>
    <vehicle id="-flow-random-route-1cbf649e-78c8-43f2-9094-654d63e46f32--1767290595424085322-19-0.1" type="actor-car-2354069905701371636" depart="120.00" departLane="0" departPos="15.02" departSpeed="max" arrivalLane="0" arrivalPos="21.79">
        <route edges="gneE145 gneE146 gneE161 gneE164 gneE124.71 gneE135 gneE137 gneE138 gneE104 gneE105"/>
    </vehicle>
    <vehicle id="-flow-random-route-22abcb02-4766-49ac-899d-b2a2c19f28e8--1767290595424085322-16-0.1" type="actor-car-2354069905701371636" depart="120.00" departLane="1" departPos="64.96" departSpeed="max" arrivalLane="1" arrivalPos="39.29">
        <route edges="gneE100 gneE91 edge-east-EN edge-north-NW edge-west-WS edge-south-SE edge-east-EN edge-north-NW edge-west-WS gneE143"/>
    </vehicle>
    <vehicle id="-flow-random-route-29f99ef8-1f9f-453f-82b1-b7348fb998e6--1767290595424085322-17-0.1" type="actor-car-2354069905701371636" depart="120.00" departLane="1" departPos="85.84" departSpeed="max" arrivalLane="0" arrivalPos="55.00">
        <route edges="gneE105 edge-west-WS gneE143 gneE144 gneE124 gneE124.71 gneE114 gneE125 gneE129 -gneE135"/>
    </vehicle>
    <vehicle id="-flow-random-route-3f303d30-2c82-443b-833f-d78925348f3c--1767290595424085322-24-0.1" type="actor-car-2354069905701371636" depart="120.00" departLane="0" departPos="53.29" departSpeed="max" arrivalLane="0" arrivalPos="75.48">
        <route edges="gneE100 gneE91 edge-east-EN edge-north-NW edge-west-WS gneE143 gneE145 gneE146 gneE148 -gneE114"/>
    </vehicle>
    <vehicle id="-flow-random-route-46c088d2-716c-4f84-97e4-3bb7f8277837--1767290595424085322-20-0.1" type="actor-car-2354069905701371636" depart="120.00" departLane="0" departPos="122.31" departSpeed="max" arrivalLane="0" arrivalPos="45.19">
        <route edges="-gneE110 gneE135 -gneE129 -gneE125 -gneE114 gneE135 gneE137 gneE138 gneE104 gneE105"/>
    </vehicle>
    <vehicle id="-flow-random-route-6f863119-691e-41d9-9fbc-34eff81e3924--1767290595424085322-1-0.1" type="actor-car-2354069905701371636" depart="120.00" departLane="0" departPos="111.79" departSpeed="max" arrivalLane="0" arrivalPos="23.10">
        <route edges="-gneE137 -gneE129 -gneE125 -gneE114"/>
    </vehicle>
    <vehicle id="-flow-random-route-752605fc-42b0-4688-98c4-8e11db795c3f--1767290595424085322-14-0.1" type="actor-car-2354069905701371636" depart="120.00" departLane="0" departPos="21.79" departSpeed="max" arrivalLane="0" arrivalPos="66.21">
        <route edges="-gneE140 gneE104 gneE105 edge-west-WS gneE143 gneE145 gneE146 gneE148 -gneE114 -gneE124"/>
    </vehicle>
    <vehicle id="-flow-random-route-7f6f23d1-3db6-4bfc-a8a4-70310cdd0566--1767290595424085322-25-0.1" type="actor-car-2354069905701371636" depart="120.00" departLane="1" departPos="7.78" departSpeed="max" arrivalLane="1" arrivalPos="5.64">
        <route edges="gneE104 gneE105 edge-west-WS gneE143 gneE145 gneE146 gneE161 gneE162 gneE100 gneE91"/>
    </vehicle>
    <vehicle id="-flow-random-route-7fb860af-3323-44b2-9707-f14f24aefafb--1767290595424085322-15-0.1" type="actor-car-2354069905701371636" depart="120.00" departLane="0" departPos="67.76" departSpeed="max" arrivalLane="1" arrivalPos="29.97">
        <route edges="gneE138 -gneE110 gneE135 -gneE129 -gneE125 -gneE114 -gneE124 gneE100 gneE91 edge-east-EN"/>
    </vehicle>
    <vehicle id="-flow-random-route-84270fae-5ff9-419e-99f4-d3e77186ccd9--1767290595424085322-11-0.1" type="actor-car-2354069905701371636" depart="120.00" departLane="0" departPos="1.73" departSpeed="max" arrivalLane="1" arrivalPos="7.27">
        <route edges="gneE91 edge-east-EN -gneE140 -gneE138 -gneE137 -gneE135 gneE110 gneE140 edge-north-NW edge-west-WS"/>
    </vehicle>
    <vehicle id="-flow-random-route-84710982-052a-4c0a-a613-eed077ec4fee--1767290595424085322-7-0.1" type="actor-car-2354069905701371636" depart="120.00" departLane="0" departPos="47.44" departSpeed="max" arrivalLane="0" arrivalPos="50.54">
        <route edges="gneE124 gneE124.71 gneE114 gneE125"/>
    </vehicle>
    <vehicle id="-flow-random-route-847bed4f-26d9-4f81-b7d3-f214a9df1170--1767290595424085322-26-0.1" type="actor-car-2354069905701371636" depart="120.00" departLane="0" departPos="6.07" departSpeed="max" arrivalLane="0" arrivalPos="91.54">
        <route edges="gneE144 gneE100 gneE91 edge-east-EN -gneE140 -gneE138 -gneE137 -gneE129 -gneE125 -gneE114"/>
    </vehicle>
    <vehicle id="-flow-random-route-935dbda9-75b5-4bc3-b3a0-9fcf9cba25b2--1767290595424085322-6-0.1" type="actor-car-2354069905701371636" depart="120.00" departLane="0" departPos="0.41" departSpeed="max" arrivalLane="0" arrivalPos="1.84">
        <route edges="gneE140 edge-north-NW edge-west-WS edge-south-SE edge-east-EN -gneE140 -gneE110 -gneE124 gneE100 gneE91"/>
    </vehicle>
    <vehicle id="-flow-random-route-97e8e14f-ad6f-4042-8d60-84bfc527de83--1767290595424085322-4-0.1" type="actor-car-2354069905701371636" depart="120.00" departLane="0" departPos="55.81" departSpeed="max" arrivalLane="0" arrivalPos="32.44">
        <route edges="gneE129 -gneE135"/>
    </vehicle>
    <vehicle id="-flow-random-route-9d825014-be67-4800-a512-3179e41a622f--1767290595424085322-10-0.1" type="actor-car-2354069905701371636" depart="120.00" departLane="0" departPos="80.10" departSpeed="max" arrivalLane="1" arrivalPos="29.06">
        <route edges="-gneE129 -gneE125 -gneE114 gneE135 gneE137 gneE138 gneE140 edge-north-NW edge-west-WS gneE143"/>
    </vehicle>
    <vehicle id="-flow-random-route-b7a81787-96ea-4980-afc8-dd7ae83a4045--1767290595424085322-29-0.1" type="actor-car-2354069905701371636" depart="120.00" departLane="1" departPos="21.25" departSpeed="max" arrivalLane="1" arrivalPos="1.05">
        <route edges="gneE105 edge-west-WS gneE143 gneE145 gneE146 gneE148 -gneE114 -gneE124 gneE100 gneE91"/>
    </vehicle>
    <vehicle id="-flow-random-route-b8574d32-b799-4eac-8909-abfdfbcfb603--1767290595424085322-18-0.1" type="actor-car-2354069905701371636" depart="120.00" departLane="1" departPos="33.12" departSpeed="max" arrivalLane="0" arrivalPos="19.84">
        <route edges="gneE143 gneE145 gneE146 gneE148 gneE125 gneE129 gneE137 gneE138 gneE104 gneE105"/>
    </vehicle>
    <vehicle id="-flow-random-route-b9892994-0320-4c74-8008-73e9a1916f45--1767290595424085322-27-0.1" type="actor-car-2354069905701371636" depart="120.00" departLane="1" departPos="35.27" departSpeed="max" arrivalLane="0" arrivalPos="77.10">
        <route edges="gneE104 gneE105 edge-west-WS gneE143 gneE145 gneE146 gneE161 gneE164 gneE124.71 gneE110"/>
    </vehicle>
    <vehicle id="-flow-random-route-badf5e2a-90fa-4ba6-8731-be8de0a2a33f--1767290595424085322-9-0.1" type="actor-car-2354069905701371636" depart="120.00" departLane="0" departPos="31.41" departSpeed="max" arrivalLane="0" arrivalPos="63.93">
        <route edges="gneE145 gneE146 gneE148 gneE125 gneE129 gneE137 gneE138 gneE140 edge-north-NW edge-west-WS"/>
    </vehicle>
    <vehicle id="-flow-random-route-be62de66-9d58-4f22-9461-cecb487b7b29--1767290595424085322-21-0.1" type="actor-car-2354069905701371636" depart="120.00" departLane="1" departPos="20.49" departSpeed="max" arrivalLane="0" arrivalPos="8.84">
        <route edges="gneE161 gneE162 gneE124 gneE124.71 gneE114 gneE125 gneE129 gneE137 gneE138 gneE140"/>
    </vehicle>
    <vehicle id="-flow-random-route-c6035b85-fc38-43bb-b4b3-d2b557680e90--1767290595424085322-23-0.1" type="actor-car-2354069905701371636" depart="120.00" departLane="0" departPos="14.67" departSpeed="max" arrivalLane="1" arrivalPos="1.13">
        <route edges="gneE135 gneE137 gneE138 gneE140 edge-north-NW edge-west-WS gneE143 gneE144 gneE100 gneE91"/>
    </vehicle>
    <vehicle id="-flow-random-route-cb56d72c-452e-4342-a32a-48e3ac524a5c--1767290595424085322-3-0.1" type="actor-car-2354069905701371636" depart="120.00" departLane="0" departPos="46.10" departSpeed="max" arrivalLane="1" arrivalPos="10.42">
        <route edges="gneE100 gneE91 edge-east-EN"/>
    </vehicle>
    <vehicle id="-flow-random-route-df628904-ded5-4f93-8279-e81f8fd86f65--1767290595424085322-22-0.1" type="actor-car-2354069905701371636" depart="120.00" departLane="1" departPos="12.70" departSpeed="max" arrivalLane="1" arrivalPos="4.15">
        <route edges="edge-west-WS edge-south-SE edge-east-EN edge-north-NW edge-west-WS edge-south-SE edge-east-EN edge-north-NW edge-west-WS gneE143"/>
    </vehicle>
    <vehicle id="-flow-random-route-e89a4091-6d17-4cde-9acb-5cd360304e37--1767290595424085322-0-0.1" type="actor-car-2354069905701371636" depart="120.00" departLane="0" departPos="111.08" departSpeed="max" arrivalLane="0" arrivalPos="56.32">
        <route edges="gneE148 gneE125 gneE129 -gneE135 gneE114 gneE125 gneE129 -gneE135 -gneE124 gneE100"/>
    </vehicle>
    <vehicle id="-flow-random-route-fc0cd95b-b8a0-4f00-b14a-03fa231f2bc6--1767290595424085322-28-0.1" type="actor-car-2354069905701371636" depart="120.00" departLane="0" departPos="23.83" departSpeed="max" arrivalLane="0" arrivalPos="82.00">
        <route edges="-gneE124 gneE100 gneE91 edge-east-EN edge-north-NW edge-west-WS gneE143 gneE145 gneE146 gneE148"/>
    </vehicle>
    <vehicle id="-flow-random-route-0abf76ad-9310-4187-aff6-e2417aa404b4--1767290595424085322-8-0.2" type="actor-car-2354069905701371636" depart="240.00" departLane="0" departPos="11.08" departSpeed="max" arrivalLane="0" arrivalPos="43.83">
        <route edges="edge-north-NW edge-west-WS edge-south-SE edge-east-EN edge-north-NW edge-west-WS gneE143 gneE144 gneE124 gneE124.71"/>
    </vehicle>
    <vehicle id="-flow-random-route-0b9cad59-fffb-4b6f-b684-64c747d0a59a--1767290595424085322-5-0.2" type="actor-car-2354069905701371636" depart="240.00" departLane="0" departPos="49.79" departSpeed="max" arrivalLane="0" arrivalPos="2.95">
        <route edges="gneE138 gneE104 gneE105 edge-west-WS edge-south-SE edge-east-EN"/>
    </vehicle>
    <vehicle id="-flow-random-route-1947759a-947c-4208-a5b9-bf9b0d1c30e9--1767290595424085322-2-0.2" type="actor-car-2354069905701371636" depart="240.00" departLane="0" departPos="53.80" departSpeed="max" arrivalLane="0" arrivalPos="7.20">
        <route edges="gneE124.71 gneE135 gneE137 gneE138 gneE104 gneE105 edge-west-WS gneE143 gneE145 gneE146"/>
    </vehicle>
    <vehicle id="-flow-random-route-1b5e0287-1f2e-4950-b86a-7996c40cb779--1767290595424085322-13-0.2" type="actor-car-2354069905701371636" depart="240.00" departLane="0" departPos="21.09" departSpeed="max" arrivalLane="0" arrivalPos="54.14">
        <route edges="gneE114 gneE125 gneE129 gneE137 gneE138 -gneE110 gneE135 -gneE129 -gneE125 -gneE114"/>
    </vehicle>
    <vehicle id="-flow-random-route-1c973988-418d-4510-8adb-d8da73e26c1c--1767290595424085322-12-0.2" type="actor-car-2354069905701371636" depart="240.00" departLane="0" departPos="30.81" departSpeed="max" arrivalLane="0" arrivalPos="9.50">
        <route edges="edge-south-SE edge-east-EN edge-north-NW edge-west-WS gneE143 gneE144 gneE124 gneE124.71 gneE110 gneE140"/>
    </vehicle>
    <vehicle id="-flow-random-route-1cbf649e-78c8-43f2-9094-654d63e46f32--1767290595424085322-19-0.2" type="actor-car-2354069905701371636" depart="240.00" departLane="0" departPos="15.02" departSpeed="max" arrivalLane="0" arrivalPos="21.79">
        <route edges="gneE145 gneE146 gneE161 gneE164 gneE124.71 gneE135 gneE137 gneE138 gneE104 gneE105"/>
    </vehicle>
    <vehicle id="-flow-random-route-22abcb02-4766-49ac-899d-b2a2c19f28e8--1767290595424085322-16-0.2" type="actor-car-2354069905701371636" depart="240.00" departLane="1" departPos="64.96" departSpeed="max" arrivalLane="1" arrivalPos="39.29">
        <route edges="gneE100 gneE91 edge-east-EN edge-north-NW edge-west-WS edge-south-SE edge-east-EN edge-north-NW edge-west-WS gneE143"/>
    </vehicle>
    <vehicle id="-flow-random-route-29f99ef8-1f9f-453f-82b1-b7348fb998e6--1767290595424085322-17-0.2" type="actor-car-2354069905701371636" depart="240.00" departLane="1" departPos="85.84" departSpeed="max" arrivalLane="0" arrivalPos="55.00">
        <route edges="gneE105 edge-west-WS gneE143 gneE144 gneE124 gneE124.71 gneE114 gneE125 gneE129 -gneE135"/>
    </vehicle>
    <vehicle id="-flow-random-route-3f303d30-2c82-443b-833f-d78925348f3c--1767290595424085322-24-0.2" type="actor-car-2354069905701371636" depart="240.00" departLane="0" departPos="53.29" departSpeed="max" arrivalLane="0" arrivalPos="75.48">
        <route edges="gneE100 gneE91 edge-east-EN edge-north-NW edge-west-WS gneE143 gneE145 gneE146 gneE148 -gneE114"/>
    </vehicle>
    <vehicle id="-flow-random-route-46c088d2-716c-4f84-97e4-3bb7f8277837--1767290595424085322-20-0.2" type="actor-car-2354069905701371636" depart="240.00" departLane="0" departPos="122.31" departSpeed="max" arrivalLane="0" arrivalPos="45.19">
        <route edges="-gneE110 gneE135 -gneE129 -gneE125 -gneE114 gneE135 gneE137 gneE138 gneE104 gneE105"/>
    </vehicle>
    <vehicle id="-flow-random-route-6f863119-691e-41d9-9fbc-34eff81e3924--1767290595424085322-1-0.2" type="actor-car-2354069905701371636" depart="240.00" departLane="0" departPos="111.79" departSpeed="max" arrivalLane="0" arrivalPos="23.10">
        <route edges="-gneE137 -gneE129 -gneE125 -gneE114"/>
    </vehicle>
    <vehicle id="-flow-random-route-752605fc-42b0-4688-98c4-8e11db795c3f--1767290595424085322-14-0.2" type="actor-car-2354069905701371636" depart="240.00" departLane="0" departPos="21.79" departSpeed="max" arrivalLane="0" arrivalPos="66.21">
        <route edges="-gneE140 gneE104 gneE105 edge-west-WS gneE143 gneE145 gneE146 gneE148 -gneE114 -gneE124"/>
    </vehicle>
    <vehicle id="-flow-random-route-7f6f23d1-3db6-4bfc-a8a4-70310cdd0566--1767290595424085322-25-0.2" type="actor-car-2354069905701371636" depart="240.00" departLane="1" departPos="7.78" departSpeed="max" arrivalLane="1" arrivalPos="5.64">
        <route edges="gneE104 gneE105 edge-west-WS gneE143 gneE145 gneE146 gneE161 gneE162 gneE100 gneE91"/>
    </vehicle>
    <vehicle id="-flow-random-route-7fb860af-3323-44b2-9707-f14f24aefafb--1767290595424085322-15-0.2" type="actor-car-2354069905701371636" depart="240.00" departLane="0" departPos="67.76" departSpeed="max" arrivalLane="1" arrivalPos="29.97">
        <route edges="gneE138 -gneE110 gneE135 -gneE129 -gneE125 -gneE114 -gneE124 gneE100 gneE91 edge-east-EN"/>
    </vehicle>
    <vehicle id="-flow-random-route-84270fae-5ff9-419e-99f4-d3e77186ccd9--1767290595424085322-11-0.2" type="actor-car-2354069905701371636" depart="240.00" departLane="0" departPos="1.73" departSpeed="max" arrivalLane="1" arrivalPos="7.27">
        <route edges="gneE91 edge-east-EN -gneE140 -gneE138 -gneE137 -gneE135 gneE110 gneE140 edge-north-NW edge-west-WS"/>
    </vehicle>
    <vehicle id="-flow-random-route-84710982-052a-4c0a-a613-eed077ec4fee--1767290595424085322-7-0.2" type="actor-car-2354069905701371636" depart="240.00" departLane="0" departPos="47.44" departSpeed="max" arrivalLane="0" arrivalPos="50.54">
        <route edges="gneE124 gneE124.71 gneE114 gneE125"/>
    </vehicle>
    <vehicle id="-flow-random-route-847bed4f-26d9-4f81-b7d3-f214a9df1170--1767290595424085322-26-0.2" type="actor-car-2354069905701371636" depart="240.00" departLane="0" departPos="6.07" departSpeed="max" arrivalLane="0" arrivalPos="91.54">
        <route edges="gneE144 gneE100 gneE91 edge-east-EN -gneE140 -gneE138 -gneE137 -gneE129 -gneE125 -gneE114"/>
    </vehicle>
    <vehicle id="-flow-random-route-935dbda9-75b5-4bc3-b3a0-9fcf9cba25b2--1767290595424085322-6-0.2" type="actor-car-2354069905701371636" depart="240.00" departLane="0" departPos="0.41" departSpeed="max" arrivalLane="0" arrivalPos="1.84">
        <route edges="gneE140 edge-north-NW edge-west-WS edge-south-SE edge-east-EN -gneE140 -gneE110 -gneE124 gneE100 gneE91"/>
    </vehicle>