<?xml version="1.0" encoding="UTF-8"?>

<!-- generated on Sat Sep  5 16:48:21 2020 by Eclipse SUMO duarouter Version 1.6.0
<configuration xmlns:xsi="http://www.w3.org/2001/XMLSchema-instance" xsi:noNamespaceSchemaLocation="http://sumo.dlr.de/xsd/duarouterConfiguration.xsd">

    <input>
        <net-file value="../dataset_public/mixed_loop/its_merge_a/map.net.xml"/>
        <route-files value="/tmp/tmp6e9oerxd/trips.trips.xml"/>
    </input>

    <output>
        <output-file value="../dataset_public/mixed_loop/its_merge_a/traffic/30_patient_car.rou.xml"/>
        <alternatives-output value="../dataset_public/mixed_loop/its_merge_a/traffic/30_patient_car.rou.alt.xml"/>
    </output>

    <processing>
        <unsorted-input value="true"/>
        <repair value="true"/>
    </processing>

    <report>
        <error-log value="/tmp/smarts/_duarouter_routing/traffic/30_patient_car.log"/>
        <no-step-log value="true"/>
    </report>

    <random_number>
        <seed value="42"/>
    </random_number>

</configuration>
-->

<routes xmlns:xsi="http://www.w3.org/2001/XMLSchema-instance" xsi:noNamespaceSchemaLocation="http://sumo.dlr.de/xsd/routes_file.xsd">
    <vType id="actor-car-2220229388135714396" minGap="2.50" speedFactor="normc(0.50,0.20,0.20,2.00)" vClass="passenger" impatience="0.50" lcCooperative="0.5" lcImpatience="0" jmDriveAfterYellowTime="1.0" accel="2.6" decel="4.5" sigma="0.5"/>
    <vehicle id="-flow-random-route-048e5aa4-122b-4c58-845e-02ca3849444f-7071245912876906541-27-0.0" type="actor-car-2220229388135714396" depart="0.00" departLane="0" departPos="26.34" departSpeed="max" arrivalLane="0" arrivalPos="153.13">
        <route edges="gneE117 gneE118"/>
    </vehicle>
    <vehicle id="-flow-random-route-18cb02fb-5ddf-4ce9-84bc-3bfc74d82635-7071245912876906541-15-0.0" type="actor-car-2220229388135714396" depart="0.00" departLane="0" departPos="32.55" departSpeed="max" arrivalLane="0" arrivalPos="144.82">
        <route edges="-gneE112 -gneE110 -gneE121 -gneE120"/>
    </vehicle>
    <vehicle id="-flow-random-route-33c798e1-16a9-4ead-8370-7b9252c983d1-7071245912876906541-29-0.0" type="actor-car-2220229388135714396" depart="0.00" departLane="0" departPos="25.85" departSpeed="max" arrivalLane="0" arrivalPos="80.54">
        <route edges="-gneE121 -gneE120 -gneE97 gneE93 -gneE112 gneE111 gneE93 -gneE112 gneE111 gneE97"/>
    </vehicle>
    <vehicle id="-flow-random-route-366318c0-4a3b-484d-a359-8d0695c2579d-7071245912876906541-1-0.0" type="actor-car-2220229388135714396" depart="0.00" departLane="0" departPos="11.64" departSpeed="max" arrivalLane="0" arrivalPos="45.61">
        <route edges="gneE93 gneE117 gneE118 gneE119 gneE110 gneE112 gneE117 gneE118 gneE119 -gneE121"/>
    </vehicle>
    <vehicle id="-flow-random-route-3d5bc532-7435-4f0b-ada1-4e62b31b5e09-7071245912876906541-17-0.0" type="actor-car-2220229388135714396" depart="0.00" departLane="0" departPos="14.37" departSpeed="max" arrivalLane="0" arrivalPos="44.56">
        <route edges="-gneE93 gneE97 gneE120 gneE121 gneE110"/>
    </vehicle>
    <vehicle id="-flow-random-route-4f31fe03-8d6e-4680-bcd8-249cd7a01a6c-7071245912876906541-11-0.0" type="actor-car-2220229388135714396" depart="0.00" departLane="0" departPos="70.55" departSpeed="max" arrivalLane="0" arrivalPos="15.44">
        <route edges="-gneE119 -gneE118 -gneE117 -gneE112 -gneE110 -gneE121 -gneE120 -gneE97 gneE93 gneE117"/>
    </vehicle>
    <vehicle id="-flow-random-route-54ee1760-2a68-4b5f-93e3-47528e9e4dd3-7071245912876906541-10-0.0" type="actor-car-2220229388135714396" depart="0.00" departLane="0" departPos="25.00" departSpeed="max" arrivalLane="0" arrivalPos="8.56">
        <route edges="-gneE112 gneE111 gneE93 gneE117 gneE118 gneE119 gneE110 gneE111 gneE97 gneE120"/>
    </vehicle>
    <vehicle id="-flow-random-route-5cac93ca-0ab9-4e21-84e6-722545ffed02-7071245912876906541-20-0.0" type="actor-car-2220229388135714396" depart="0.00" departLane="0" departPos="60.05" departSpeed="max" arrivalLane="0" arrivalPos="68.78">
        <route edges="gneE93 gneE117 gneE118"/>
    </vehicle>
    <vehicle id="-flow-random-route-6832cf05-c5a5-4694-a65f-094f65d5df80-7071245912876906541-25-0.0" type="actor-car-2220229388135714396" depart="0.00" departLane="0" departPos="91.95" departSpeed="max" arrivalLane="0" arrivalPos="21.63">
        <route edges="-gneE112 -gneE110 -gneE119 -gneE118 -gneE117 -gneE93 gneE97 gneE120 gneE121 gneE110"/>
    </vehicle>
    <vehicle id="-flow-random-route-7619cd0d-8226-4ef9-9b68-e2e7ed740a4a-7071245912876906541-26-0.0" type="actor-car-2220229388135714396" depart="0.00" departLane="0" departPos="4.72" departSpeed="max" arrivalLane="0" arrivalPos="26.15">
        <route edges="gneE111 gneE93 -gneE112 -gneE110 -gneE119 -gneE118 -gneE117 -gneE93 -gneE111 gneE112"/>
    </vehicle>
    <vehicle id="-flow-random-route-7a6ceb9e-0010-4be4-a198-8bb3228f00b9-7071245912876906541-4-0.0" type="actor-car-2220229388135714396" depart="0.00" departLane="0" departPos="117.29" departSpeed="max" arrivalLane="0" arrivalPos="64.12">
        <route edges="-gneE119 -gneE118 -gneE117 -gneE112 gneE111 gneE93 gneE117 gneE118 gneE119 gneE110"/>
    </vehicle>
    <vehicle id="-flow-random-route-7f771789-f9af-49b4-9600-40a1cb91e871-7071245912876906541-24-0.0" type="actor-car-2220229388135714396" depart="0.00" departLane="0" departPos="70.25" departSpeed="max" arrivalLane="0" arrivalPos="68.58">
        <route edges="-gneE97 gneE93 -gneE112 -gneE110 -gneE119 -gneE118 -gneE117 -gneE112 -gneE110 -gneE121"/>
    </vehicle>
    <vehicle id="-flow-random-route-81a4f1db-109a-4022-a405-9929eabc8b74-7071245912876906541-28-0.0" type="actor-car-2220229388135714396" depart="0.00" departLane="0" departPos="12.65" departSpeed="max" arrivalLane="0" arrivalPos="112.26">
        <route edges="-gneE111 -gneE110 -gneE119 -gneE118 -gneE117 -gneE93 -gneE111 gneE112 gneE117 gneE118"/>
    </vehicle>
    <vehicle id="-flow-random-route-88ba86b4-d3ec-4a59-ab90-fbd4d3ebf115-7071245912876906541-8-0.0" type="actor-car-2220229388135714396" depart="0.00" departLane="0" departPos="60.93" departSpeed="max" arrivalLane="0" arrivalPos="55.91">
        <route edges="-gneE117 -gneE93 gneE97 gneE120 gneE121 -gneE119 -gneE118 -gneE117 -gneE112 gneE111"/>
    </vehicle>
    <vehicle id="-flow-random-route-978b14e4-b444-4513-8bc3-e3eaf474c9eb-7071245912876906541-6-0.0" type="actor-car-2220229388135714396" depart="0.00" departLane="0" departPos="31.02" departSpeed="max" arrivalLane="0" arrivalPos="6.52">
        <route edges="-gneE120 -gneE97 -gneE111 -gneE110 -gneE119 -gneE118 -gneE117 -gneE93 gneE97 gneE120"/>
    </vehicle>
    <vehicle id="-flow-random-route-9fa051b4-cd56-4bf4-a1dd-cb731f1b260b-7071245912876906541-14-0.0" type="actor-car-2220229388135714396" depart="0.00" departLane="0" departPos="40.83" departSpeed="max" arrivalLane="0" arrivalPos="85.95">
        <route edges="gneE120 gneE121 gneE110 gneE112 -gneE93 -gneE111 -gneE110 -gneE121 -gneE120 -gneE97"/>
    </vehicle>
    <vehicle id="-flow-random-route-a26e438c-f2ad-4538-8e3a-0a19ebd468f1-7071245912876906541-12-0.0" type="actor-car-2220229388135714396" depart="0.00" departLane="0" departPos="42.50" departSpeed="max" arrivalLane="0" arrivalPos="60.97">
        <route edges="-gneE119 -gneE118 -gneE117 -gneE93 -gneE111 gneE112 gneE117 gneE118 gneE119 -gneE121"/>
    </vehicle>
    <vehicle id="-flow-random-route-a648440b-4ea1-401c-85e8-2687a8c89100-7071245912876906541-18-0.0" type="actor-car-2220229388135714396" depart="0.00" departLane="0" departPos="65.95" departSpeed="max" arrivalLane="0" arrivalPos="7.81">
        <route edges="gneE112 -gneE93 gneE97 gneE120"/>
    </vehicle>
    <vehicle id="-flow-random-route-a733fcf0-19f5-43b0-a581-3d4f03173c1d-7071245912876906541-21-0.0" type="actor-car-2220229388135714396" depart="0.00" departLane="0" departPos="155.95" departSpeed="max" arrivalLane="0" arrivalPos="36.11">
        <route edges="-gneE120 -gneE97 gneE93 -gneE112 gneE111 gneE93 gneE117 gneE118 gneE119 -gneE121"/>
    </vehicle>
    <vehicle id="-flow-random-route-aa597ad2-004f-4503-929f-e8f944f2d1ac-7071245912876906541-16-0.0" type="actor-car-2220229388135714396" depart="0.00" departLane="0" departPos="81.43" departSpeed="max" arrivalLane="0" arrivalPos="172.86">
        <route edges="-gneE112 -gneE110 -gneE121 -gneE120"/>
    </vehicle>
    <vehicle id="-flow-random-route-aea0844e-7570-40e1-9be3-de46c531e429-7071245912876906541-2-0.0" type="actor-car-2220229388135714396" depart="0.00" departLane="0" departPos="127.94" departSpeed="max" arrivalLane="0" arrivalPos="89.36">
        <route edges="-gneE120 -gneE97 gneE93 -gneE112 gneE111 gneE97 gneE120 gneE121 gneE110 gneE112"/>
    </vehicle>
    <vehicle id="-flow-random-route-b32a4d67-0419-409d-a767-a2e52c744d7e-7071245912876906541-13-0.0" type="actor-car-2220229388135714396" depart="0.00" departLane="0" departPos="49.86" departSpeed="max" arrivalLane="0" arrivalPos="63.23">
        <route edges="gneE97 gneE120 gneE121 -gneE119"/>
    </vehicle>
    <vehicle id="-flow-random-route-b3dd1470-a158-40ed-bba2-7293626625e5-7071245912876906541-9-0.0" type="actor-car-2220229388135714396" depart="0.00" departLane="0" departPos="21.69" departSpeed="max" arrivalLane="0" arrivalPos="165.19">
        <route edges="gneE112 -gneE93 -gneE111 -gneE110 -gneE119 -gneE118 -gneE117 -gneE93 gneE97 gneE120"/>
    </vehicle>
    <vehicle id="-flow-random-route-b4de789f-5dda-469d-ad93-3c521dc7996b-7071245912876906541-23-0.0" type="actor-car-2220229388135714396" depart="0.00" departLane="0" departPos="44.95" departSpeed="max" arrivalLane="0" arrivalPos="55.98">
        <route edges="-gneE93 -gneE111 gneE112 -gneE93 -gneE111 gneE112 gneE117 gneE118 gneE119 -gneE121"/>
    </vehicle>
    <vehicle id="-flow-random-route-c0e6743c-7a1a-45cb-a824-a937d71139a2-7071245912876906541-7-0.0" type="actor-car-2220229388135714396" depart="0.00" departLane="0" departPos="93.59" departSpeed="max" arrivalLane="0" arrivalPos="17.89">
        <route edges="gneE121 -gneE119 -gneE118 -gneE117 -gneE93 -gneE111 gneE112 gneE117 gneE118 gneE119"/>
    </vehicle>
    <vehicle id="-flow-random-route-c20012a5-481a-43c8-ad65-b90bc12191b0-7071245912876906541-5-0.0" type="actor-car-2220229388135714396" depart="0.00" departLane="0" departPos="48.02" departSpeed="max" arrivalLane="0" arrivalPos="115.38">
        <route edges="-gneE112 gneE111 gneE93 gneE117 gneE118"/>
    </vehicle>
    <vehicle id="-flow-random-route-d7d0b28e-d4e9-4bcb-bdaa-9234f922750f-7071245912876906541-19-0.0" type="actor-car-2220229388135714396" depart="0.00" departLane="0" departPos="22.04" departSpeed="max" arrivalLane="0" arrivalPos="38.70">
        <route edges="gneE117 gneE118 gneE119 -gneE121 -gneE120 -gneE97 gneE93 -gneE112 -gneE110 -gneE119"/>
    </vehicle>
    <vehicle id="-flow-random-route-da117572-ce33-4a79-960a-22f7f0bc6dc8-7071245912876906541-0-0.0" type="actor-car-2220229388135714396" depart="0.00" departLane="0" departPos="12.64" departSpeed="max" arrivalLane="0" arrivalPos="9.81">
        <route edges="gneE111 gneE93 -gneE112 gneE111 gneE97 gneE120 gneE121 -gneE119 -gneE118 -gneE117"/>
    </vehicle>
    <vehicle id="-flow-random-route-e04bc6dd-abaa-471c-9d64-e71c8c1cfd43-7071245912876906541-3-0.0" type="actor-car-2220229388135714396" depart="0.00" departLane="0" departPos="88.89" departSpeed="max" arrivalLane="0" arrivalPos="54.95">
        <route edges="-gneE118 -gneE117 -gneE112 -gneE110"/>
    </vehicle>
    <vehicle id="-flow-random-route-f34418d4-580f-46c9-ab50-8ec02bd858da-7071245912876906541-22-0.0" type="actor-car-2220229388135714396" depart="0.00" departLane="0" departPos="20.90" departSpeed="max" arrivalLane="0" arrivalPos="62.42">
        <route edges="-gneE121 -gneE120 -gneE97 gneE93 gneE117 gneE118 gneE119 gneE110 gneE112 -gneE93"/>
    </vehicle>
    <vehicle id="-flow-random-route-048e5aa4-122b-4c58-845e-02ca3849444f-7071245912876906541-27-0.1" type="actor-car-2220229388135714396" depart="120.00" departLane="0" departPos="26.34" departSpeed="max" arrivalLane="0" arrivalPos="153.13">
        <route edges="gneE117 gneE118"/>
    </vehicle>
    <vehicle id="-flow-random-route-18cb02fb-5ddf-4ce9-84bc-3bfc74d82635-7071245912876906541-15-0.1" type="actor-car-2220229388135714396" depart="120.00" departLane="0" departPos="32.55" departSpeed="max" arrivalLane="0" arrivalPos="144.82">
        <route edges="-gneE112 -gneE110 -gneE121 -gneE120"/>
    </vehicle>
    <vehicle id="-flow-random-route-33c798e1-16a9-4ead-8370-7b9252c983d1-7071245912876906541-29-0.1" type="actor-car-2220229388135714396" depart="120.00" departLane="0" departPos="25.85" departSpeed="max" arrivalLane="0" arrivalPos="80.54">
        <route edges="-gneE121 -gneE120 -gneE97 gneE93 -gneE112 gneE111 gneE93 -gneE112 gneE111 gneE97"/>
    </vehicle>
    <vehicle id="-flow-random-route-366318c0-4a3b-484d-a359-8d0695c2579d-7071245912876906541-1-0.1" type="actor-car-2220229388135714396" depart="120.00" departLane="0" departPos="11.64" departSpeed="max" arrivalLane="0" arrivalPos="45.61">
        <route edges="gneE93 gneE117 gneE118 gneE119 gneE110 gneE112 gneE117 gneE118 gneE119 -gneE121"/>
    </vehicle>
    <vehicle id="-flow-random-route-3d5bc532-7435-4f0b-ada1-4e62b31b5e09-7071245912876906541-17-0.1" type="actor-car-2220229388135714396" depart="120.00" departLane="0" departPos="14.37" departSpeed="max" arrivalLane="0" arrivalPos="44.56">
        <route edges="-gneE93 gneE97 gneE120 gneE121 gneE110"/>
    </vehicle>
    <vehicle id="-flow-random-route-4f31fe03-8d6e-4680-bcd8-249cd7a01a6c-7071245912876906541-11-0.1" type="actor-car-2220229388135714396" depart="120.00" departLane="0" departPos="70.55" departSpeed="max" arrivalLane="0" arrivalPos="15.44">
        <route edges="-gneE119 -gneE118 -gneE117 -gneE112 -gneE110 -gneE121 -gneE120 -gneE97 gneE93 gneE117"/>
    </vehicle>
    <vehicle id="-flow-random-route-54ee1760-2a68-4b5f-93e3-47528e9e4dd3-7071245912876906541-10-0.1" type="actor-car-2220229388135714396" depart="120.00" departLane="0" departPos="25.00" departSpeed="max" arrivalLane="0" arrivalPos="8.56">
        <route edges="-gneE112 gneE111 gneE93 gneE117 gneE118 gneE119 gneE110 gneE111 gneE97 gneE120"/>
    </vehicle>
    <vehicle id="-flow-random-route-5cac93ca-0ab9-4e21-84e6-722545ffed02-7071245912876906541-20-0.1" type="actor-car-2220229388135714396" depart="120.00" departLane="0" departPos="60.05" departSpeed="max" arrivalLane="0" arrivalPos="68.78">
        <route edges="gneE93 gneE117 gneE118"/>
    </vehicle>
    <vehicle id="-flow-random-route-6832cf05-c5a5-4694-a65f-094f65d5df80-7071245912876906541-25-0.1" type="actor-car-2220229388135714396" depart="120.00" departLane="0" departPos="91.95" departSpeed="max" arrivalLane="0" arrivalPos="21.63">
        <route edges="-gneE112 -gneE110 -gneE119 -gneE118 -gneE117 -gneE93 gneE97 gneE120 gneE121 gneE110"/>
    </vehicle>
    <vehicle id="-flow-random-route-7619cd0d-8226-4ef9-9b68-e2e7ed740a4a-7071245912876906541-26-0.1" type="actor-car-2220229388135714396" depart="120.00" departLane="0" departPos="4.72" departSpeed="max" arrivalLane="0" arrivalPos="26.15">
        <route edges="gneE111 gneE93 -gneE112 -gneE110 -gneE119 -gneE118 -gneE117 -gneE93 -gneE111 gneE112"/>
    </vehicle>
    <vehicle id="-flow-random-route-7a6ceb9e-0010-4be4-a198-8bb3228f00b9-7071245912876906541-4-0.1" type="actor-car-2220229388135714396" depart="120.00" departLane="0" departPos="117.29" departSpeed="max" arrivalLane="0" arrivalPos="64.12">
        <route edges="-gneE119 -gneE118 -gneE117 -gneE112 gneE111 gneE93 gneE117 gneE118 gneE119 gneE110"/>
    </vehicle>
    <vehicle id="-flow-random-route-7f771789-f9af-49b4-9600-40a1cb91e871-7071245912876906541-24-0.1" type="actor-car-2220229388135714396" depart="120.00" departLane="0" departPos="70.25" departSpeed="max" arrivalLane="0" arrivalPos="68.58">
        <route edges="-gneE97 gneE93 -gneE112 -gneE110 -gneE119 -gneE118 -gneE117 -gneE112 -gneE110 -gneE121"/>
    </vehicle>
    <vehicle id="-flow-random-route-81a4f1db-109a-4022-a405-9929eabc8b74-7071245912876906541-28-0.1" type="actor-car-2220229388135714396" depart="120.00" departLane="0" departPos="12.65" departSpeed="max" arrivalLane="0" arrivalPos="112.26">
        <route edges="-gneE111 -gneE110 -gneE119 -gneE118 -gneE117 -gneE93 -gneE111 gneE112 gneE117 gneE118"/>
    </vehicle>
    <vehicle id="-flow-random-route-88ba86b4-d3ec-4a59-ab90-fbd4d3ebf115-7071245912876906541-8-0.1" type="actor-car-2220229388135714396" depart="120.00" departLane="0" departPos="60.93" departSpeed="max" arrivalLane="0" arrivalPos="55.91">
        <route edges="-gneE117 -gneE93 gneE97 gneE120 gneE121 -gneE119 -gneE118 -gneE117 -gneE112 gneE111"/>
    </vehicle>
    <vehicle id="-flow-random-route-978b14e4-b444-4513-8bc3-e3eaf474c9eb-7071245912876906541-6-0.1" type="actor-car-2220229388135714396" depart="120.00" departLane="0" departPos="31.02" departSpeed="max" arrivalLane="0" arrivalPos="6.52">
        <route edges="-gneE120 -gneE97 -gneE111 -gneE110 -gneE119 -gneE118 -gneE117 -gneE93 gneE97 gneE120"/>
    </vehicle>
    <vehicle id="-flow-random-route-9fa051b4-cd56-4bf4-a1dd-cb731f1b260b-7071245912876906541-14-0.1" type="actor-car-2220229388135714396" depart="120.00" departLane="0" departPos="40.83" departSpeed="max" arrivalLane="0" arrivalPos="85.95">
        <route edges="gneE120 gneE121 gneE110 gneE112 -gneE93 -gneE111 -gneE110 -gneE121 -gneE120 -gneE97"/>
    </vehicle>
    <vehicle id="-flow-random-route-a26e438c-f2ad-4538-8e3a-0a19ebd468f1-7071245912876906541-12-0.1" type="actor-car-2220229388135714396" depart="120.00" departLane="0" departPos="42.50" departSpeed="max" arrivalLane="0" arrivalPos="60.97">
        <route edges="-gneE119 -gneE118 -gneE117 -gneE93 -gneE111 gneE112 gneE117 gneE118 gneE119 -gneE121"/>
    </vehicle>
    <vehicle id="-flow-random-route-a648440b-4ea1-401c-85e8-2687a8c89100-7071245912876906541-18-0.1" type="actor-car-2220229388135714396" depart="120.00" departLane="0" departPos="65.95" departSpeed="max" arrivalLane="0" arrivalPos="7.81">
        <route edges="gneE112 -gneE93 gneE97 gneE120"/>
    </vehicle>
    <vehicle id="-flow-random-route-a733fcf0-19f5-43b0-a581-3d4f03173c1d-7071245912876906541-21-0.1" type="actor-car-2220229388135714396" depart="120.00" departLane="0" departPos="155.95" departSpeed="max" arrivalLane="0" arrivalPos="36.11">
        <route edges="-gneE120 -gneE97 gneE93 -gneE112 gneE111 gneE93 gneE117 gneE118 gneE119 -gneE121"/>
    </vehicle>
    <vehicle id="-flow-random-route-aa597ad2-004f-4503-929f-e8f944f2d1ac-7071245912876906541-16-0.1" type="actor-car-2220229388135714396" depart="120.00" departLane="0" departPos="81.43" departSpeed="max" arrivalLane="0" arrivalPos="172.86">
        <route edges="-gneE112 -gneE110 -gneE121 -gneE120"/>
    </vehicle>
    <vehicle id="-flow-random-route-aea0844e-7570-40e1-9be3-de46c531e429-7071245912876906541-2-0.1" type="actor-car-2220229388135714396" depart="120.00" departLane="0" departPos="127.94" departSpeed="max" arrivalLane="0" arrivalPos="89.36">
        <route edges="-gneE120 -gneE97 gneE93 -gneE112 gneE111 gneE97 gneE120 gneE121 gneE110 gneE112"/>
    </vehicle>
    <vehicle id="-flow-random-route-b32a4d67-0419-409d-a767-a2e52c744d7e-7071245912876906541-13-0.1" type="actor-car-2220229388135714396" depart="120.00" departLane="0" departPos="49.86" departSpeed="max" arrivalLane="0" arrivalPos="63.23">
        <route edges="gneE97 gneE120 gneE121 -gneE119"/>
    </vehicle>
    <vehicle id="-flow-random-route-b3dd1470-a158-40ed-bba2-7293626625e5-7071245912876906541-9-0.1" type="actor-car-2220229388135714396" depart="120.00" departLane="0" departPos="21.69" departSpeed="max" arrivalLane="0" arrivalPos="165.19">
        <route edges="gneE112 -gneE93 -gneE111 -gneE110 -gneE119 -gneE118 -gneE117 -gneE93 gneE97 gneE120"/>
    </vehicle>
    <vehicle id="-flow-random-route-b4de789f-5dda-469d-ad93-3c521dc7996b-7071245912876906541-23-0.1" type="actor-car-2220229388135714396" depart="120.00" departLane="0" departPos="44.95" departSpeed="max" arrivalLane="0" arrivalPos="55.98">
        <route edges="-gneE93 -gneE111 gneE112 -gneE93 -gneE111 gneE112 gneE117 gneE118 gneE119 -gneE121"/>
    </vehicle>
    <vehicle id="-flow-random-route-c0e6743c-7a1a-45cb-a824-a937d71139a2-7071245912876906541-7-0.1" type="actor-car-2220229388135714396" depart="120.00" departLane="0" departPos="93.59" departSpeed="max" arrivalLane="0" arrivalPos="17.89">
        <route edges="gneE121 -gneE119 -gneE118 -gneE117 -gneE93 -gneE111 gneE112 gneE117 gneE118 gneE119"/>
    </vehicle>
    <vehicle id="-flow-random-route-c20012a5-481a-43c8-ad65-b90bc12191b0-7071245912876906541-5-0.1" type="actor-car-2220229388135714396" depart="120.00" departLane="0" departPos="48.02" departSpeed="max" arrivalLane="0" arrivalPos="115.38">
        <route edges="-gneE112 gneE111 gneE93 gneE117 gneE118"/>
    </vehicle>
    <vehicle id="-flow-random-route-d7d0b28e-d4e9-4bcb-bdaa-9234f922750f-7071245912876906541-19-0.1" type="actor-car-2220229388135714396" depart="120.00" departLane="0" departPos="22.04" departSpeed="max" arrivalLane="0" arrivalPos="38.70">
        <route edges="gneE117 gneE118 gneE119 -gneE121 -gneE120 -gneE97 gneE93 -gneE112 -gneE110 -gneE119"/>
    </vehicle>
    <vehicle id="-flow-random-route-da117572-ce33-4a79-960a-22f7f0bc6dc8-7071245912876906541-0-0.1" type="actor-car-2220229388135714396" depart="120.00" departLane="0" departPos="12.64" departSpeed="max" arrivalLane="0" arrivalPos="9.81">
        <route edges="gneE111 gneE93 -gneE112 gneE111 gneE97 gneE120 gneE121 -gneE119 -gneE118 -gneE117"/>
    </vehicle>
    <vehicle id="-flow-random-route-e04bc6dd-abaa-471c-9d64-e71c8c1cfd43-7071245912876906541-3-0.1" type="actor-car-2220229388135714396" depart="120.00" departLane="0" departPos="88.89" departSpeed="max" arrivalLane="0" arrivalPos="54.95">
        <route edges="-gneE118 -gneE117 -gneE112 -gneE110"/>
    </vehicle>
    <vehicle id="-flow-random-route-f34418d4-580f-46c9-ab50-8ec02bd858da-7071245912876906541-22-0.1" type="actor-car-2220229388135714396" depart="120.00" departLane="0" departPos="20.90" departSpeed="max" arrivalLane="0" arrivalPos="62.42">
        <route edges="-gneE121 -gneE120 -gneE97 gneE93 gneE117 gneE118 gneE119 gneE110 gneE112 -gneE93"/>
    </vehicle>
    <vehicle id="-flow-random-route-048e5aa4-122b-4c58-845e-02ca3849444f-7071245912876906541-27-0.2" type="actor-car-2220229388135714396" depart="240.00" departLane="0" departPos="26.34" departSpeed="max" arrivalLane="0" arrivalPos="153.13">
        <route edges="gneE117 gneE118"/>
    </vehicle>
    <vehicle id="-flow-random-route-18cb02fb-5ddf-4ce9-84bc-3bfc74d82635-7071245912876906541-15-0.2" type="actor-car-2220229388135714396" depart="240.00" departLane="0" departPos="32.55" departSpeed="max" arrivalLane="0" arrivalPos="144.82">
        <route edges="-gneE112 -gneE110 -gneE121 -gneE120"/>
    </vehicle>
    <vehicle id="-flow-random-route-33c798e1-16a9-4ead-8370-7b9252c983d1-7071245912876906541-29-0.2" type="actor-car-2220229388135714396" depart="240.00" departLane="0" departPos="25.85" departSpeed="max" arrivalLane="0" arrivalPos="80.54">
        <route edges="-gneE121 -gneE120 -gneE97 gneE93 -gneE112 gneE111 gneE93 -gneE112 gneE111 gneE97"/>
    </vehicle>
    <vehicle id="-flow-random-route-366318c0-4a3b-484d-a359-8d0695c2579d-7071245912876906541-1-0.2" type="actor-car-2220229388135714396" depart="240.00" departLane="0" departPos="11.64" departSpeed="max" arrivalLane="0" arrivalPos="45.61">
        <route edges="gneE93 gneE117 gneE118 gneE119 gneE110 gneE112 gneE117 gneE118 gneE119 -gneE121"/>
    </vehicle>
    <vehicle id="-flow-random-route-3d5bc532-7435-4f0b-ada1-4e62b31b5e09-7071245912876906541-17-0.2" type="actor-car-2220229388135714396" depart="240.00" departLane="0" departPos="14.37" departSpeed="max" arrivalLane="0" arrivalPos="44.56">
        <route edges="-gneE93 gneE97 gneE120 gneE121 gneE110"/>
    </vehicle>
    <vehicle id="-flow-random-route-4f31fe03-8d6e-4680-bcd8-249cd7a01a6c-7071245912876906541-11-0.2" type="actor-car-2220229388135714396" depart="240.00" departLane="0" departPos="70.55" departSpeed="max" arrivalLane="0" arrivalPos="15.44">
        <route edges="-gneE119 -gneE118 -gneE117 -gneE112 -gneE110 -gneE121 -gneE120 -gneE97 gneE93 gneE117"/>
    </vehicle>
    <vehicle id="-flow-random-route-54ee1760-2a68-4b5f-93e3-47528e9e4dd3-7071245912876906541-10-0.2" type="actor-car-2220229388135714396" depart="240.00" departLane="0" departPos="25.00" departSpeed="max" arrivalLane="0" arrivalPos="8.56">
        <route edges="-gneE112 gneE111 gneE93 gneE117 gneE118 gneE119 gneE110 gneE111 gneE97 gneE120"/>
    </vehicle>
    <vehicle id="-flow-random-route-5cac93ca-0ab9-4e21-84e6-722545ffed02-7071245912876906541-20-0.2" type="actor-car-2220229388135714396" depart="240.00" departLane="0" departPos="60.05" departSpeed="max" arrivalLane="0" arrivalPos="68.78">
        <route edges="gneE93 gneE117 gneE118"/>
    </vehicle>
    <vehicle id="-flow-random-route-6832cf05-c5a5-4694-a65f-094f65d5df80-7071245912876906541-25-0.2" type="actor-car-2220229388135714396" depart="240.00" departLane="0" departPos="91.95" departSpeed="max" arrivalLane="0" arrivalPos="21.63">
        <route edges="-gneE112 -gneE110 -gneE119 -gneE118 -gneE117 -gneE93 gneE97 gneE120 gneE121 gneE110"/>
    </vehicle>
    <vehicle id="-flow-random-route-7619cd0d-8226-4ef9-9b68-e2e7ed740a4a-7071245912876906541-26-0.2" type="actor-car-2220229388135714396" depart="240.00" departLane="0" departPos="4.72" departSpeed="max" arrivalLane="0" arrivalPos="26.15">
        <route edges="gneE111 gneE93 -gneE112 -gneE110 -gneE119 -gneE118 -gneE117 -gneE93 -gneE111 gneE112"/>
    </vehicle>
    <vehicle id="-flow-random-route-7a6ceb9e-0010-4be4-a198-8bb3228f00b9-7071245912876906541-4-0.2" type="actor-car-2220229388135714396" depart="240.00" departLane="0" departPos="117.29" departSpeed="max" arrivalLane="0" arrivalPos="64.12">
        <route edges="-gneE119 -gneE118 -gneE117 -gneE112 gneE111 gneE93 gneE117 gneE118 gneE119 gneE110"/>
    </vehicle>
    <vehicle id="-flow-random-route-7f771789-f9af-49b4-9600-40a1cb91e871-7071245912876906541-24-0.2" type="actor-car-2220229388135714396" depart="240.00" departLane="0" departPos="70.25" departSpeed="max" arrivalLane="0" arrivalPos="68.58">
        <route edges="-gneE97 gneE93 -gneE112 -gneE110 -gneE119 -gneE118 -gneE117 -gneE112 -gneE110 -gneE121"/>
    </vehicle>
    <vehicle id="-flow-random-route-81a4f1db-109a-4022-a405-9929eabc8b74-7071245912876906541-28-0.2" type="actor-car-2220229388135714396" depart="240.00" departLane="0" departPos="12.65" departSpeed="max" arrivalLane="0" arrivalPos="112.26">
        <route edges="-gneE111 -gneE110 -gneE119 -gneE118 -gneE117 -gneE93 -gneE111 gneE112 gneE117 gneE118"/>
    </vehicle>
    <vehicle id="-flow-random-route-88ba86b4-d3ec-4a59-ab90-fbd4d3ebf115-7071245912876906541-8-0.2" type="actor-car-2220229388135714396" depart="240.00" departLane="0" departPos="60.93" departSpeed="max" arrivalLane="0" arrivalPos="55.91">
        <route edges="-gneE117 -gneE93 gneE97 gneE120 gneE121 -gneE119 -gneE118 -gneE117 -gneE112 gneE111"/>
    </vehicle>
    <vehicle id="-flow-random-route-978b14e4-b444-4513-8bc3-e3eaf474c9eb-7071245912876906541-6-0.2" type="actor-car-2220229388135714396" depart="240.00" departLane="0" departPos="31.02" departSpeed="max" arrivalLane="0" arrivalPos="6.52">
        <route edges="-gneE120 -gneE97 -gneE111 -gneE110 -gneE119 -gneE118 -gneE117 -gneE93 gneE97 gneE120"/>
    </vehicle>
    <vehicle id="-flow-random-route-9fa051b4-cd56-4bf4-a1dd-cb731f1b260b-7071245912876906541-14-0.2" type="actor-car-2220229388135714396" depart="240.00" departLane="0" departPos="40.83" departSpeed="max" arrivalLane="0" arrivalPos="85.95">
        <route edges="gneE120 gneE121 gneE110 gneE112 -gneE93 -gneE111 -gneE110 -gneE121 -gneE120 -gneE97"/>
    </vehicle>
    <vehicle id="-flow-random-route-a26e438c-f2ad-4538-8e3a-0a19ebd468f1-7071245912876906541-12-0.2" type="actor-car-2220229388135714396" depart="240.00" departLane="0" departPos="42.50" departSpeed="max" arrivalLane="0" arrivalPos="60.97">
        <route edges="-gneE119 -gneE118 -gneE117 -gneE93 -gneE111 gneE112 gneE117 gneE118 gneE119 -gneE121"/>
    </vehicle>
    <vehicle id="-flow-random-route-a648440b-4ea1-401c-85e8-2687a8c89100-7071245912876906541-18-0.2" type="actor-car-2220229388135714396" depart="240.00" departLane="0" departPos="65.95" departSpeed="max" arrivalLane="0" arrivalPos="7.81">
        <route edges="gneE112 -gneE93 gneE97 gneE120"/>
    </vehicle>
    <vehicle id="-flow-random-route-a733fcf0-19f5-43b0-a581-3d4f03173c1d-7071245912876906541-21-0.2" type="actor-car-2220229388135714396" depart="240.00" departLane="0" departPos="155.95" departSpeed="max" arrivalLane="0" arrivalPos="36.11">
        <route edges="-gneE120 -gneE97 gneE93 -gneE112 gneE111 gneE93 gneE117 gneE118 gneE119 -gneE121"/>
    </vehicle>
    <vehicle id="-flow-random-route-aa597ad2-004f-4503-929f-e8f944f2d1ac-7071245912876906541-16-0.2" type="actor-car-2220229388135714396" depart="240.00" departLane="0" departPos="81.43" departSpeed="max" arrivalLane="0" arrivalPos="172.86">
        <route edges="-gneE112 -gneE110 -gneE121 -gneE120"/>
    </vehicle>
    <vehicle id="-flow-random-route-aea0844e-7570-40e1-9be3-de46c531e429-7071245912876906541-2-0.2" type="actor-car-2220229388135714396" depart="240.00" departLane="0" departPos="127.94" departSpeed="max" arrivalLane="0" arrivalPos="89.36">
        <route edges="-gneE120 -gneE97 gneE93 -gneE112 gneE111 gneE97 gneE120 gneE121 gneE110 gneE112"/>
    </vehicle>
    <vehicle id="-flow-random-route-b32a4d67-0419-409d-a767-a2e52c744d7e-7071245912876906541-13-0.2" type="actor-car-2220229388135714396" depart="240.00" departLane="0" departPos="49.86" departSpeed="max" arrivalLane="0" arrivalPos="63.23">
        <route edges="gneE97 gneE120 gneE121 -gneE119"/>
    </vehicle>