<?xml version="1.0" encoding="UTF-8"?>

<!-- generated on Sat Sep  5 16:48:20 2020 by Eclipse SUMO duarouter Version 1.6.0
<configuration xmlns:xsi="http://www.w3.org/2001/XMLSchema-instance" xsi:noNamespaceSchemaLocation="http://sumo.dlr.de/xsd/duarouterConfiguration.xsd">

    <input>
        <net-file value="../dataset_public/simple_loop/simpleloop_a/map.net.xml"/>
        <route-files value="/tmp/tmpi2raybfz/trips.trips.xml"/>
    </input>

    <output>
        <output-file value="../dataset_public/simple_loop/simpleloop_a/traffic/30_patient_car.rou.xml"/>
        <alternatives-output value="../dataset_public/simple_loop/simpleloop_a/traffic/30_patient_car.rou.alt.xml"/>
    </output>

    <processing>
        <unsorted-input value="true"/>
        <repair value="true"/>
    </processing>

    <report>
        <error-log value="/tmp/smarts/_duarouter_routing/traffic/30_patient_car.log"/>
        <no-step-log value="true"/>
    </report>

    <random_number>
        <seed value="42"/>
    </random_number>

</configuration>
-->

<routes xmlns:xsi="http://www.w3.org/2001/XMLSchema-instance" xsi:noNamespaceSchemaLocation="http://sumo.dlr.de/xsd/routes_file.xsd">
    <vType id="actor-car--3932947747471329688" minGap="2.50" speedFactor="normc(0.50,0.20,0.20,2.00)" vClass="passenger" impatience="0.50" lcCooperative="0.5" lcImpatience="0" jmDriveAfterYellowTime="1.0" accel="2.6" decel="4.5" sigma="0.5"/>
    <vehicle id="-flow-random-route-08b9a142-66a2-4f76-bda1-97179dcb492e--4746268670844444178-29-0.0" type="actor-car--3932947747471329688" depart="0.00" departLane="1" departPos="24.37" departSpeed="max" arrivalLane="1" arrivalPos="407.68">
        <route edges="edge0 edge1"/>
    </vehicle>
    <vehicle id="-flow-random-route-132a5633-0694-400a-9707-e5e5d57605cd--4746268670844444178-9-0.0" type="actor-car--3932947747471329688" depart="0.00" departLane="2" departPos="55.19" departSpeed="max" arrivalLane="1" arrivalPos="154.60">
        <route edges="edge0 edge1"/>
    </vehicle>
    <vehicle id="-flow-random-route-14a23504-c646-4867-8a8e-be20d4b71ead--4746268670844444178-10-0.0" type="actor-car--3932947747471329688" depart="0.00" departLane="0" departPos="23.82" departSpeed="max" arrivalLane="0" arrivalPos="427.60">
        <route edges="edge0 edge1"/>
    </vehicle>
    <vehicle id="-flow-random-route-184aed4c-59e5-4afb-9c92-f6bb0bf11427--4746268670844444178-22-0.0" type="actor-car--3932947747471329688" depart="0.00" departLane="0" departPos="247.10" departSpeed="max" arrivalLane="0" arrivalPos="47.99">
        <route edges="edge1 edge0"/>
    </vehicle>
    <vehicle id="-flow-random-route-1bf86f37-6f26-4d2a-a5de-a32deac1485d--4746268670844444178-19-0.0" type="actor-car--3932947747471329688" depart="0.00" departLane="2" departPos="65.15" departSpeed="max" arrivalLane="2" arrivalPos="446.25">
        <route edges="edge0 edge1"/>
    </vehicle>
    <vehicle id="-flow-random-route-26bf7be8-d72a-4b44-9c14-c488e71e1156--4746268670844444178-13-0.0" type="actor-car--3932947747471329688" depart="0.00" departLane="2" departPos="270.85" departSpeed="max" arrivalLane="2" arrivalPos="18.83">
        <route edges="edge1 edge0"/>
    </vehicle>
    <vehicle id="-flow-random-route-4a746cba-9713-4ea0-9b30-c0367a6c6056--4746268670844444178-7-0.0" type="actor-car--3932947747471329688" depart="0.00" departLane="1" departPos="18.71" departSpeed="max" arrivalLane="2" arrivalPos="253.27">
        <route edges="edge0 edge1"/>
    </vehicle>
    <vehicle id="-flow-random-route-62e787a4-9d6e-464e-a760-6e4dc8707d72--4746268670844444178-17-0.0" type="actor-car--3932947747471329688" depart="0.00" departLane="2" departPos="102.99" departSpeed="max" arrivalLane="1" arrivalPos="17.41">
        <route edges="edge1 edge0"/>
    </vehicle>
    <vehicle id="-flow-random-route-7c9deb2d-e165-45d4-b3c3-3b27d1c93b90--4746268670844444178-25-0.0" type="actor-car--3932947747471329688" depart="0.00" departLane="2" departPos="195.29" departSpeed="max" arrivalLane="0" arrivalPos="85.27">
        <route edges="edge1 edge0"/>
    </vehicle>
    <vehicle id="-flow-random-route-840f8dab-b01f-47fa-b419-75815d652040--4746268670844444178-23-0.0" type="actor-car--3932947747471329688" depart="0.00" departLane="0" departPos="22.60" departSpeed="max" arrivalLane="1" arrivalPos="52.26">
        <route edges="edge1 edge0"/>
    </vehicle>
    <vehicle id="-flow-random-route-9c4e684f-fc83-4947-9d0d-ce8ec446a78d--4746268670844444178-18-0.0" type="actor-car--3932947747471329688" depart="0.00" departLane="1" departPos="178.30" departSpeed="max" arrivalLane="0" arrivalPos="76.86">
        <route edges="edge1 edge0"/>
    </vehicle>
    <vehicle id="-flow-random-route-9deb9c04-abd1-464d-b822-3b96c73ec413--4746268670844444178-15-0.0" type="actor-car--3932947747471329688" depart="0.00" departLane="0" departPos="49.52" departSpeed="max" arrivalLane="2" arrivalPos="29.81">
        <route edges="edge0 edge1"/>
    </vehicle>
    <vehicle id="-flow-random-route-a7ff8323-74e9-45e1-9947-423e09830670--4746268670844444178-8-0.0" type="actor-car--3932947747471329688" depart="0.00" departLane="1" departPos="117.08" departSpeed="max" arrivalLane="0" arrivalPos="75.07">
        <route edges="edge1 edge0"/>
    </vehicle>
    <vehicle id="-flow-random-route-aa583b9b-e41c-4a25-be77-0ddf14fe3ee5--4746268670844444178-2-0.0" type="actor-car--3932947747471329688" depart="0.00" departLane="1" departPos="49.98" departSpeed="max" arrivalLane="1" arrivalPos="8.27">
        <route edges="edge1 edge0"/>
    </vehicle>
    <vehicle id="-flow-random-route-ae79c951-aeec-478f-a65e-65d3ff364da7--4746268670844444178-16-0.0" type="actor-car--3932947747471329688" depart="0.00" departLane="2" departPos="85.17" departSpeed="max" arrivalLane="2" arrivalPos="122.93">
        <route edges="edge0 edge1"/>
    </vehicle>
    <vehicle id="-flow-random-route-b083c56f-6b13-47ee-ab45-a65ae88b9650--4746268670844444178-26-0.0" type="actor-car--3932947747471329688" depart="0.00" departLane="2" departPos="64.58" departSpeed="max" arrivalLane="2" arrivalPos="98.36">
        <route edges="edge0 edge1"/>
    </vehicle>
    <vehicle id="-flow-random-route-b2e46db6-cbf6-4082-a5e4-74db2f6ce76b--4746268670844444178-1-0.0" type="actor-car--3932947747471329688" depart="0.00" departLane="0" departPos="323.34" departSpeed="max" arrivalLane="1" arrivalPos="84.24">
        <route edges="edge1 edge0"/>
    </vehicle>
    <vehicle id="-flow-random-route-b7b8e0b8-783f-48cc-9b55-f02b17f611e7--4746268670844444178-6-0.0" type="actor-car--3932947747471329688" depart="0.00" departLane="1" departPos="34.30" departSpeed="max" arrivalLane="0" arrivalPos="103.16">
        <route edges="edge0 edge1"/>
    </vehicle>
    <vehicle id="-flow-random-route-ca115124-7c2b-465b-b2d8-dc87bd4f32e3--4746268670844444178-24-0.0" type="actor-car--3932947747471329688" depart="0.00" departLane="1" departPos="216.02" departSpeed="max" arrivalLane="2" arrivalPos="18.27">
        <route edges="edge1 edge0"/>
    </vehicle>
    <vehicle id="-flow-random-route-d753a3e5-7652-438c-96cd-3fbe2ae1183c--4746268670844444178-14-0.0" type="actor-car--3932947747471329688" depart="0.00" departLane="1" departPos="15.27" departSpeed="max" arrivalLane="1" arrivalPos="18.71">
        <route edges="edge0 edge1"/>
    </vehicle>
    <vehicle id="-flow-random-route-d75bfaeb-df3b-41ab-abd4-26478bda2874--4746268670844444178-3-0.0" type="actor-car--3932947747471329688" depart="0.00" departLane="0" departPos="62.98" departSpeed="max" arrivalLane="1" arrivalPos="382.56">
        <route edges="edge0 edge1"/>
    </vehicle>
    <vehicle id="-flow-random-route-dcda8c75-90f7-4fe3-b2e3-6331a65643c3--4746268670844444178-0-0.0" type="actor-car--3932947747471329688" depart="0.00" departLane="2" departPos="80.08" departSpeed="max" arrivalLane="2" arrivalPos="34.91">
        <route edges="edge0 edge1"/>
    </vehicle>
    <vehicle id="-flow-random-route-dd238b5c-5abe-439d-9faa-4303663b1b9e--4746268670844444178-28-0.0" type="actor-car--3932947747471329688" depart="0.00" departLane="1" departPos="59.61" departSpeed="max" arrivalLane="2" arrivalPos="62.24">
        <route edges="edge0 edge1"/>
    </vehicle>
    <vehicle id="-flow-random-route-dd5b7fb4-71f3-46e0-a7e4-9105b3407ba3--4746268670844444178-20-0.0" type="actor-car--3932947747471329688" depart="0.00" departLane="0" departPos="73.93" departSpeed="max" arrivalLane="0" arrivalPos="80.50">
        <route edges="edge0 edge1"/>
    </vehicle>
    <vehicle id="-flow-random-route-e2a1fda8-362c-464f-b0e4-7c5316e13b45--4746268670844444178-11-0.0" type="actor-car--3932947747471329688" depart="0.00" departLane="1" departPos="149.23" departSpeed="max" arrivalLane="0" arrivalPos="19.06">
        <route edges="edge1 edge0"/>
    </vehicle>
    <vehicle id="-flow-random-route-e6afb543-ff05-435d-9671-9e5a589cb54f--4746268670844444178-27-0.0" type="actor-car--3932947747471329688" depart="0.00" departLane="1" departPos="58.62" departSpeed="max" arrivalLane="2" arrivalPos="21.05">
        <route edges="edge1 edge0"/>
    </vehicle>
    <vehicle id="-flow-random-route-e83ca6dc-2101-44d7-9349-f89adaecd96f--4746268670844444178-4-0.0" type="actor-car--3932947747471329688" depart="0.00" departLane="2" departPos="452.58" departSpeed="max" arrivalLane="2" arrivalPos="58.73">
        <route edges="edge1 edge0"/>
    </vehicle>
    <vehicle id="-flow-random-route-ec35dc0b-9944-4840-baa7-c42f16365c69--4746268670844444178-5-0.0" type="actor-car--3932947747471329688" depart="0.00" departLane="2" departPos="4.63" departSpeed="max" arrivalLane="2" arrivalPos="481.23">
        <route edges="edge0 edge1"/>
    </vehicle>
    <vehicle id="-flow-random-route-ec61e133-4761-4dcd-a0e8-5a4ad253b59e--4746268670844444178-21-0.0" type="actor-car--3932947747471329688" depart="0.00" departLane="2" departPos="11.31" departSpeed="max" arrivalLane="2" arrivalPos="281.75">
        <route edges="edge0 edge1"/>
    </vehicle>
    <vehicle id="-flow-random-route-ee742de6-b57e-4fda-9754-6529ba13f886--4746268670844444178-12-0.0" type="actor-car--3932947747471329688" depart="0.00" departLane="2" departPos="479.09" departSpeed="max" arrivalLane="0" arrivalPos="63.38">
        <route edges="edge1 edge0"/>
    </vehicle>
    <vehicle id="-flow-random-route-08b9a142-66a2-4f76-bda1-97179dcb492e--4746268670844444178-29-0.1" type="actor-car--3932947747471329688" depart="120.00" departLane="1" departPos="24.37" departSpeed="max" arrivalLane="1" arrivalPos="407.68">
        <route edges="edge0 edge1"/>
    </vehicle>
    <vehicle id="-flow-random-route-132a5633-0694-400a-9707-e5e5d57605cd--4746268670844444178-9-0.1" type="actor-car--3932947747471329688" depart="120.00" departLane="2" departPos="55.19" departSpeed="max" arrivalLane="1" arrivalPos="154.60">
        <route edges="edge0 edge1"/>
    </vehicle>
    <vehicle id="-flow-random-route-14a23504-c646-4867-8a8e-be20d4b71ead--4746268670844444178-10-0.1" type="actor-car--3932947747471329688" depart="120.00" departLane="0" departPos="23.82" departSpeed="max" arrivalLane="0" arrivalPos="427.60">
        <route edges="edge0 edge1"/>
    </vehicle>
    <vehicle id="-flow-random-route-184aed4c-59e5-4afb-9c92-f6bb0bf11427--4746268670844444178-22-0.1" type="actor-car--3932947747471329688" depart="120.00" departLane="0" departPos="247.10" departSpeed="max" arrivalLane="0" arrivalPos="47.99">
        <route edges="edge1 edge0"/>
    </vehicle>
    <vehicle id="-flow-random-route-1bf86f37-6f26-4d2a-a5de-a32deac1485d--4746268670844444178-19-0.1" type="actor-car--3932947747471329688" depart="120.00" departLane="2" departPos="65.15" departSpeed="max" arrivalLane="2" arrivalPos="446.25">
        <route edges="edge0 edge1"/>
    </vehicle>
    <vehicle id="-flow-random-route-26bf7be8-d72a-4b44-9c14-c488e71e1156--4746268670844444178-13-0.1" type="actor-car--3932947747471329688" depart="120.00" departLane="2" departPos="270.85" departSpeed="max" arrivalLane="2" arrivalPos="18.83">
        <route edges="edge1 edge0"/>
    </vehicle>
    <vehicle id="-flow-random-route-4a746cba-9713-4ea0-9b30-c0367a6c6056--4746268670844444178-7-0.1" type="actor-car--3932947747471329688" depart="120.00" departLane="1" departPos="18.71" departSpeed="max" arrivalLane="2" arrivalPos="253.27">
        <route edges="edge0 edge1"/>
    </vehicle>
    <vehicle id="-flow-random-route-62e787a4-9d6e-464e-a760-6e4dc8707d72--4746268670844444178-17-0.1" type="actor-car--3932947747471329688" depart="120.00" departLane="2" departPos="102.99" departSpeed="max" arrivalLane="1" arrivalPos="17.41">
        <route edges="edge1 edge0"/>
    </vehicle>
    <vehicle id="-flow-random-route-7c9deb2d-e165-45d4-b3c3-3b27d1c93b90--4746268670844444178-25-0.1" type="actor-car--3932947747471329688" depart="120.00" departLane="2" departPos="195.29" departSpeed="max" arrivalLane="0" arrivalPos="85.27">
        <route edges="edge1 edge0"/>
    </vehicle>
    <vehicle id="-flow-random-route-840f8dab-b01f-47fa-b419-75815d652040--4746268670844444178-23-0.1" type="actor-car--3932947747471329688" depart="120.00" departLane="0" departPos="22.60" departSpeed="max" arrivalLane="1" arrivalPos="52.26">
        <route edges="edge1 edge0"/>
    </vehicle>
    <vehicle id="-flow-random-route-9c4e684f-fc83-4947-9d0d-ce8ec446a78d--4746268670844444178-18-0.1" type="actor-car--3932947747471329688" depart="120.00" departLane="1" departPos="178.30" departSpeed="max" arrivalLane="0" arrivalPos="76.86">
        <route edges="edge1 edge0"/>
    </vehicle>
    <vehicle id="-flow-random-route-9deb9c04-abd1-464d-b822-3b96c73ec413--4746268670844444178-15-0.1" type="actor-car--3932947747471329688" depart="120.00" departLane="0" departPos="49.52" departSpeed="max" arrivalLane="2" arrivalPos="29.81">
        <route edges="edge0 edge1"/>
    </vehicle>
    <vehicle id="-flow-random-route-a7ff8323-74e9-45e1-9947-423e09830670--4746268670844444178-8-0.1" type="actor-car--3932947747471329688" depart="120.00" departLane="1" departPos="117.08" departSpeed="max" arrivalLane="0" arrivalPos="75.07">
        <route edges="edge1 edge0"/>
    </vehicle>
    <vehicle id="-flow-random-route-aa583b9b-e41c-4a25-be77-0ddf14fe3ee5--4746268670844444178-2-0.1" type="actor-car--3932947747471329688" depart="120.00" departLane="1" departPos="49.98" departSpeed="max" arrivalLane="1" arrivalPos="8.27">
        <route edges="edge1 edge0"/>
    </vehicle>
    <vehicle id="-flow-random-route-ae79c951-aeec-478f-a65e-65d3ff364da7--4746268670844444178-16-0.1" type="actor-car--3932947747471329688" depart="120.00" departLane="2" departPos="85.17" departSpeed="max" arrivalLane="2" arrivalPos="122.93">
        <route edges="edge0 edge1"/>
    </vehicle>
    <vehicle id="-flow-random-route-b083c56f-6b13-47ee-ab45-a65ae88b9650--4746268670844444178-26-0.1" type="actor-car--3932947747471329688" depart="120.00" departLane="2" departPos="64.58" departSpeed="max" arrivalLane="2" arrivalPos="98.36">
        <route edges="edge0 edge1"/>
    </vehicle>
    <vehicle id="-flow-random-route-b2e46db6-cbf6-4082-a5e4-74db2f6ce76b--4746268670844444178-1-0.1" type="actor-car--3932947747471329688" depart="120.00" departLane="0" departPos="323.34" departSpeed="max" arrivalLane="1" arrivalPos="84.24">
        <route edges="edge1 edge0"/>
    </vehicle>
    <vehicle id="-flow-random-route-b7b8e0b8-783f-48cc-9b55-f02b17f611e7--4746268670844444178-6-0.1" type="actor-car--3932947747471329688" depart="120.00" departLane="1" departPos="34.30" departSpeed="max" arrivalLane="0" arrivalPos="103.16">
        <route edges="edge0 edge1"/>
    </vehicle>
    <vehicle id="-flow-random-route-ca115124-7c2b-465b-b2d8-dc87bd4f32e3--4746268670844444178-24-0.1" type="actor-car--3932947747471329688" depart="120.00" departLane="1" departPos="216.02" departSpeed="max" arrivalLane="2" arrivalPos="18.27">
        <route edges="edge1 edge0"/>
    </vehicle>
    <vehicle id="-flow-random-route-d753a3e5-7652-438c-96cd-3fbe2ae1183c--4746268670844444178-14-0.1" type="actor-car--3932947747471329688" depart="120.00" departLane="1" departPos="15.27" departSpeed="max" arrivalLane="1" arrivalPos="18.71">
        <route edges="edge0 edge1"/>
    </vehicle>
    <vehicle id="-flow-random-route-d75bfaeb-df3b-41ab-abd4-26478bda2874--4746268670844444178-3-0.1" type="actor-car--3932947747471329688" depart="120.00" departLane="0" departPos="62.98" departSpeed="max" arrivalLane="1" arrivalPos="382.56">
        <route edges="edge0 edge1"/>
    </vehicle>
    <vehicle id="-flow-random-route-dcda8c75-90f7-4fe3-b2e3-6331a65643c3--4746268670844444178-0-0.1" type="actor-car--3932947747471329688" depart="120.00" departLane="2" departPos="80.08" departSpeed="max" arrivalLane="2" arrivalPos="34.91">
        <route edges="edge0 edge1"/>
    </vehicle>
    <vehicle id="-flow-random-route-dd238b5c-5abe-439d-9faa-4303663b1b9e--4746268670844444178-28-0.1" type="actor-car--3932947747471329688" depart="120.00" departLane="1" departPos="59.61" departSpeed="max" arrivalLane="2" arrivalPos="62.24">
        <route edges="edge0 edge1"/>
    </vehicle>
    <vehicle id="-flow-random-route-dd5b7fb4-71f3-46e0-a7e4-9105b3407ba3--4746268670844444178-20-0.1" type="actor-car--3932947747471329688" depart="120.00" departLane="0" departPos="73.93" departSpeed="max" arrivalLane="0" arrivalPos="80.50">
        <route edges="edge0 edge1"/>
    </vehicle>
    <vehicle id="-flow-random-route-e2a1fda8-362c-464f-b0e4-7c5316e13b45--4746268670844444178-11-0.1" type="actor-car--3932947747471329688" depart="120.00" departLane="1" departPos="149.23" departSpeed="max" arrivalLane="0" arrivalPos="19.06">
        <route edges="edge1 edge0"/>
    </vehicle>
    <vehicle id="-flow-random-route-e6afb543-ff05-435d-9671-9e5a589cb54f--4746268670844444178-27-0.1" type="actor-car--3932947747471329688" depart="120.00" departLane="1" departPos="58.62" departSpeed="max" arrivalLane="2" arrivalPos="21.05">
        <route edges="edge1 edge0"/>
    </vehicle>
    <vehicle id="-flow-random-route-e83ca6dc-2101-44d7-9349-f89adaecd96f--4746268670844444178-4-0.1" type="actor-car--3932947747471329688" depart="120.00" departLane="2" departPos="452.58" departSpeed="max" arrivalLane="2" arrivalPos="58.73">
        <route edges="edge1 edge0"/>
    </vehicle>
    <vehicle id="-flow-random-route-ec35dc0b-9944-4840-baa7-c42f16365c69--4746268670844444178-5-0.1" type="actor-car--3932947747471329688" depart="120.00" departLane="2" departPos="4.63" departSpeed="max" arrivalLane="2" arrivalPos="481.23">
        <route edges="edge0 edge1"/>
    </vehicle>
    <vehicle id="-flow-random-route-ec61e133-4761-4dcd-a0e8-5a4ad253b59e--4746268670844444178-21-0.1" type="actor-car--3932947747471329688" depart="120.00" departLane="2" departPos="11.31" departSpeed="max" arrivalLane="2" arrivalPos="281.75">
        <route edges="edge0 edge1"/>
    </vehicle>
    <vehicle id="-flow-random-route-ee742de6-b57e-4fda-9754-6529ba13f886--4746268670844444178-12-0.1" type="actor-car--3932947747471329688" depart="120.00" departLane="2" departPos="479.09" departSpeed="max" arrivalLane="0" arrivalPos="63.38">
        <route edges="edge1 edge0"/>
    </vehicle>
    <vehicle id="-flow-random-route-08b9a142-66a2-4f76-bda1-97179dcb492e--4746268670844444178-29-0.2" type="actor-car--3932947747471329688" depart="240.00" departLane="1" departPos="24.37" departSpeed="max" arrivalLane="1" arrivalPos="407.68">
        <route edges="edge0 edge1"/>
    </vehicle>
    <vehicle id="-flow-random-route-132a5633-0694-400a-9707-e5e5d57605cd--4746268670844444178-9-0.2" type="actor-car--3932947747471329688" depart="240.00" departLane="2" departPos="55.19" departSpeed="max" arrivalLane="1" arrivalPos="154.60">
        <route edges="edge0 edge1"/>
    </vehicle>
    <vehicle id="-flow-random-route-14a23504-c646-4867-8a8e-be20d4b71ead--4746268670844444178-10-0.2" type="actor-car--3932947747471329688" depart="240.00" departLane="0" departPos="23.82" departSpeed="max" arrivalLane="0" arrivalPos="427.60">
        <route edges="edge0 edge1"/>
    </vehicle>
    <vehicle id="-flow-random-route-184aed4c-59e5-4afb-9c92-f6bb0bf11427--4746268670844444178-22-0.2" type="actor-car--3932947747471329688" depart="240.00" departLane="0" departPos="247.10" departSpeed="max" arrivalLane="0" arrivalPos="47.99">
        <route edges="edge1 edge0"/>
    </vehicle>
    <vehicle id="-flow-random-route-1bf86f37-6f26-4d2a-a5de-a32deac1485d--4746268670844444178-19-0.2" type="actor-car--3932947747471329688" depart="240.00" departLane="2" departPos="65.15" departSpeed="max" arrivalLane="2" arrivalPos="446.25">
        <route edges="edge0 edge1"/>
    </vehicle>
    <vehicle id="-flow-random-route-26bf7be8-d72a-4b44-9c14-c488e71e1156--4746268670844444178-13-0.2" type="actor-car--3932947747471329688" depart="240.00" departLane="2" departPos="270.85" departSpeed="max" arrivalLane="2" arrivalPos="18.83">
        <route edges="edge1 edge0"/>
    </vehicle>
    <vehicle id="-flow-random-route-4a746cba-9713-4ea0-9b30-c0367a6c6056--4746268670844444178-7-0.2" type="actor-car--3932947747471329688" depart="240.00" departLane="1" departPos="18.71" departSpeed="max" arrivalLane="2" arrivalPos="253.27">
        <route edges="edge0 edge1"/>
    </vehicle>
    <vehicle id="-flow-random-route-62e787a4-9d6e-464e-a760-6e4dc8707d72--4746268670844444178-17-0.2" type="actor-car--3932947747471329688" depart="240.00" departLane="2" departPos="102.99" departSpeed="max" arrivalLane="1" arrivalPos="17.41">
        <route edges="edge1 edge0"/>
    </vehicle>
    <vehicle id="-flow-random-route-7c9deb2d-e165-45d4-b3c3-3b27d1c93b90--4746268670844444178-25-0.2" type="actor-car--3932947747471329688" depart="240.00" departLane="2" departPos="195.29" departSpeed="max" arrivalLane="0" arrivalPos="85.27">
        <route edges="edge1 edge0"/>
    </vehicle>
    <vehicle id="-flow-random-route-840f8dab-b01f-47fa-b419-75815d652040--4746268670844444178-23-0.2" type="actor-car--3932947747471329688" depart="240.00" departLane="0" departPos="22.60" departSpeed="max" arrivalLane="1" arrivalPos="52.26">
        <route edges="edge1 edge0"/>
    </vehicle>
    <vehicle id="-flow-random-route-9c4e684f-fc83-4947-9d0d-ce8ec446a78d--4746268670844444178-18-0.2" type="actor-car--3932947747471329688" depart="240.00" departLane="1" departPos="178.30" departSpeed="max" arrivalLane="0" arrivalPos="76.86">
        <route edges="edge1 edge0"/>
    </vehicle>
    <vehicle id="-flow-random-route-9deb9c04-abd1-464d-b822-3b96c73ec413--4746268670844444178-15-0.2" type="actor-car--3932947747471329688" depart="240.00" departLane="0" departPos="49.52" departSpeed="max" arrivalLane="2" arrivalPos="29.81">
        <route edges="edge0 edge1"/>
    </vehicle>
    <vehicle id="-flow-random-route-a7ff8323-74e9-45e1-9947-423e09830670--4746268670844444178-8-0.2" type="actor-car--3932947747471329688" depart="240.00" departLane="1" departPos="117.08" departSpeed="max" arrivalLane="0" arrivalPos="75.07">
        <route edges="edge1 edge0"/>
    </vehicle>
    <vehicle id="-flow-random-route-aa583b9b-e41c-4a25-be77-0ddf14fe3ee5--4746268670844444178-2-0.2" type="actor-car--3932947747471329688" depart="240.00" departLane="1" departPos="49.98" departSpeed="max" arrivalLane="1" arrivalPos="8.27">
        <route edges="edge1 edge0"/>
    </vehicle>
    <vehicle id="-flow-random-route-ae79c951-aeec-478f-a65e-65d3ff364da7--4746268670844444178-16-0.2" type="actor-car--3932947747471329688" depart="240.00" departLane="2" departPos="85.17" departSpeed="max" arrivalLane="2" arrivalPos="122.93">
        <route edges="edge0 edge1"/>
    </vehicle>
    <vehicle id="-flow-random-route-b083c56f-6b13-47ee-ab45-a65ae88b9650--4746268670844444178-26-0.2" type="actor-car--3932947747471329688" depart="240.00" departLane="2" departPos="64.58" departSpeed="max" arrivalLane="2" arrivalPos="98.36">
        <route edges="edge0 edge1"/>
    </vehicle>
    <vehicle id="-flow-random-route-b2e46db6-cbf6-4082-a5e4-74db2f6ce76b--4746268670844444178-1-0.2" type="actor-car--3932947747471329688" depart="240.00" departLane="0" departPos="323.34" departSpeed="max" arrivalLane="1" arrivalPos="84.24">
        <route edges="edge1 edge0"/>
    </vehicle>
    <vehicle id="-flow-random-route-b7b8e0b8-783f-48cc-9b55-f02b17f611e7--4746268670844444178-6-0.2" type="actor-car--3932947747471329688" depart="240.00" departLane="1" departPos="34.30" departSpeed="max" arrivalLane="0" arrivalPos="103.16">
        <route edges="edge0 edge1"/>
    </vehicle>
    <vehicle id="-flow-random-route-ca115124-7c2b-465b-b2d8-dc87bd4f32e3--4746268670844444178-24-0.2" type="actor-car--3932947747471329688" depart="240.00" departLane="1" departPos="216.02" departSpeed="max" arrivalLane="2" arrivalPos="18.27">
        <route edges="edge1 edge0"/>
    </vehicle>
    <vehicle id="-flow-random-route-d753a3e5-7652-438c-96cd-3fbe2ae1183c--4746268670844444178-14-0.2" type="actor-car--3932947747471329688" depart="240.00" departLane="1" departPos="15.27" departSpeed="max" arrivalLane="1" arrivalPos="18.71">
        <route edges="edge0 edge1"/>
    </vehicle>
    <vehicle id="-flow-random-route-d75bfaeb-df3b-41ab-abd4-26478bda2874--4746268670844444178-3-0.2" type="actor-car--3932947747471329688" depart="240.00" departLane="0" departPos="62.98" departSpeed="max" arrivalLane="1" arrivalPos="382.56">
        <route edges="edge0 edge1"/>
    </vehicle>
    <vehicle id="-flow-random-route-dcda8c75-90f7-4fe3-b2e3-6331a65643c3--4746268670844444178-0-0.2" type="actor-car--3932947747471329688" depart="240.00" departLane="2" departPos="80.08" departSpeed="max" arrivalLane="2" arrivalPos="34.91">
        <route edges="edge0 edge1"/>
    </vehicle>
    <vehicle id="-flow-random-route-dd238b5c-5abe-439d-9faa-4303663b1b9e--4746268670844444178-28-0.2" type="actor-car--3932947747471329688" depart="240.00" departLane="1" departPos="59.61" departSpeed="max" arrivalLane="2" arrivalPos="62.24">
        <route edges="edge0 edge1"/>
    </vehicle>
    <vehicle id="-flow-random-route-dd5b7fb4-71f3-46e0-a7e4-9105b3407ba3--4746268670844444178-20-0.2" type="actor-car--3932947747471329688" depart="240.00" departLane="0" departPos="73.93" departSpeed="max" arrivalLane="0" arrivalPos="80.50">
        <route edges="edge0 edge1"/>
    </vehicle>
    <vehicle id="-flow-random-route-e2a1fda8-362c-464f-b0e4-7c5316e13b45--4746268670844444178-11-0.2" type="actor-car--3932947747471329688" depart="240.00" departLane="1" departPos="149.23" departSpeed="max" arrivalLane="0" arrivalPos="19.06">
        <route edges="edge1 edge0"/>
    </vehicle>
    <vehicle id="-flow-random-route-e6afb543-ff05-435d-9671-9e5a589cb54f--4746268670844444178-27-0.2" type="actor-car--3932947747471329688" depart="240.00" departLane="1" departPos="58.62" departSpeed="max" arrivalLane="2" arrivalPos="21.05">
        <route edges="edge1 edge0"/>
    </vehicle>
    <vehicle id="-flow-random-route-e83ca6dc-2101-44d7-9349-f89adaecd96f--4746268670844444178-4-0.2" type="actor-car--3932947747471329688" depart="240.00" departLane="2" departPos="452.58" departSpeed="max" arrivalLane="2" arrivalPos="58.73">
        <route edges="edge1 edge0"/>
    </vehicle>
    <vehicle id="-flow-random-route-ec35dc0b-9944-4840-baa7-c42f16365c69--4746268670844444178-5-0.2" type="actor-car--3932947747471329688" depart="240.00" departLane="2" departPos="4.63" departSpeed="max" arrivalLane="2" arrivalPos="481.23">
        <route edges="edge0 edge1"/>
    </vehicle>
    <vehicle id="-flow-random-route-ec61e133-4761-4dcd-a0e8-5a4ad253b59e--4746268670844444178-21-0.2" type="actor-car--3932947747471329688" depart="240.00" departLane="2" departPos="11.31" departSpeed="max" arrivalLane="2" arrivalPos="281.75">
        <route edges="edge0 edge1"/>
    </vehicle>
    <vehicle id="-flow-random-route-ee742de6-b57e-4fda-9754-6529ba13f886--4746268670844444178-12-0.2" type="actor-car--3932947747471329688" depart="240.00" departLane="2" departPos="479.09" departSpeed="max" arrivalLane="0" arrivalPos="63.38">
        <route edges="edge1 edge0"/>
    </vehicle>
    <vehicle id="-flow-random-route-08b9a142-66a2-4f76-bda1-97179dcb492e--4746268670844444178-29-0.3" type="actor-car--3932947747471329688" depart="360.00" departLane="1" departPos="24.37" departSpeed="max" arrivalLane="1" arrivalPos="407.68">
        <route edges="edge0 edge1"/>
    </vehicle>
    <vehicle id="-flow-random-route-132a5633-0694-400a-9707-e5e5d57605cd--4746268670844444178-9-0.3" type="actor-car--3932947747471329688" depart="360.00" departLane="2" departPos="55.19" departSpeed="max" arrivalLane="1" arrivalPos="154.60">
        <route edges="edge0 edge1"/>
    </vehicle>
    <vehicle id="-flow-random-route-14a23504-c646-4867-8a8e-be20d4b71ead--4746268670844444178-10-0.3" type="actor-car--3932947747471329688" depart="360.00" departLane="0" departPos="23.82" departSpeed="max" arrivalLane="0" arrivalPos="427.60">
        <route edges="edge0 edge1"/>
    </vehicle>
    <vehicle id="-flow-random-route-184aed4c-59e5-4afb-9c92-f6bb0bf11427--4746268670844444178-22-0.3" type="actor-car--3932947747471329688" depart="360.00" departLane="0" departPos="247.10" departSpeed="max" arrivalLane="0" arrivalPos="47.99">
        <route edges="edge1 edge0"/>
    </vehicle>
    <vehicle id="-flow-random-route-1bf86f37-6f26-4d2a-a5de-a32deac1485d--4746268670844444178-19-0.3" type="actor-car--3932947747471329688" depart="360.00" departLane="2" departPos="65.15" departSpeed="max" arrivalLane="2" arrivalPos="446.25">
        <route edges="edge0 edge1"/>
    </vehicle>
    <vehicle id="-flow-random-route-26bf7be8-d72a-4b44-9c14-c488e71e1156--4746268670844444178-13-0.3" type="actor-car--3932947747471329688" depart="360.00" departLane="2" departPos="270.85" departSpeed="max" arrivalLane="2" arrivalPos="18.83">
        <route edges="edge1 edge0"/>
    </vehicle>
    <vehicle id="-flow-random-route-4a746cba-9713-4ea0-9b30-c0367a6c6056--4746268670844444178-7-0.3" type="actor-car--3932947747471329688" depart="360.00" departLane="1" departPos="18.71" departSpeed="max" arrivalLane="2" arrivalPos="253.27">
        <route edges="edge0 edge1"/>