<?xml version="1.0" encoding="UTF-8"?>

<!-- generated on Sat Sep  5 16:48:20 2020 by Eclipse SUMO duarouter Version 1.6.0
<configuration xmlns:xsi="http://www.w3.org/2001/XMLSchema-instance" xsi:noNamespaceSchemaLocation="http://sumo.dlr.de/xsd/duarouterConfiguration.xsd">

    <input>
        <net-file value="../dataset_public/intersection_loop/its_a/map.net.xml"/>
        <route-files value="/tmp/tmpairwd3rp/trips.trips.xml"/>
    </input>

    <output>
        <output-file value="../dataset_public/intersection_loop/its_a/traffic/30_patient_car.rou.xml"/>
        <alternatives-output value="../dataset_public/intersection_loop/its_a/traffic/30_patient_car.rou.alt.xml"/>
    </output>

    <processing>
        <unsorted-input value="true"/>
        <repair value="true"/>
    </processing>

    <report>
        <error-log value="/tmp/smarts/_duarouter_routing/traffic/30_patient_car.log"/>
        <no-step-log value="true"/>
    </report>

    <random_number>
        <seed value="42"/>
    </random_number>

</configuration>
-->

<routes xmlns:xsi="http://www.w3.org/2001/XMLSchema-instance" xsi:noNamespaceSchemaLocation="http://sumo.dlr.de/xsd/routes_file.xsd">
    <vType id="actor-car-5203678812341577633" minGap="2.50" speedFactor="normc(0.50,0.20,0.20,2.00)" vClass="passenger" impatience="0.50" lcCooperative="0.5" lcImpatience="0" jmDriveAfterYellowTime="1.0" accel="2.6" decel="4.5" sigma="0.5"/>
    <vehicle id="-flow-random-route-012b251c-a92e-44b9-86ca-b85164b32033--4454444608107602036-3-0.0" type="actor-car-5203678812341577633" depart="0.00" departLane="0" departPos="6.12" departSpeed="max" arrivalLane="0" arrivalPos="54.03">
        <route edges="gneE15 -gneE12 gneE11 gneE13 gneE14 gneE15 gneE8 gneE9 gneE2 gneE12"/>
    </vehicle>
    <vehicle id="-flow-random-route-0fb25f8c-57a3-46c9-9219-42c838efd7dc--4454444608107602036-12-0.0" type="actor-car-5203678812341577633" depart="0.00" departLane="0" departPos="37.51" departSpeed="max" arrivalLane="0" arrivalPos="44.48">
        <route edges="gneE9 gneE2 gneE12 -gneE15 -gneE14 -gneE13 -gneE11 gneE12 gneE8 gneE9"/>
    </vehicle>
    <vehicle id="-flow-random-route-243a7b07-6ee9-440c-9cc3-f13884938699--4454444608107602036-7-0.0" type="actor-car-5203678812341577633" depart="0.00" departLane="0" departPos="48.96" departSpeed="max" arrivalLane="1" arrivalPos="39.54">
        <route edges="-gneE14 -gneE13 -gneE11 gneE12 -gneE15 -gneE14 -gneE13 -gneE11 gneE12 gneE8"/>
    </vehicle>
    <vehicle id="-flow-random-route-2f09da53-d817-4987-9613-bec66320bfd6--4454444608107602036-6-0.0" type="actor-car-5203678812341577633" depart="0.00" departLane="0" departPos="88.28" departSpeed="max" arrivalLane="0" arrivalPos="85.30">
        <route edges="-gneE12 gneE11 gneE13"/>
    </vehicle>
    <vehicle id="-flow-random-route-300153f4-c1bf-46f3-bd08-acf12286004b--4454444608107602036-28-0.0" type="actor-car-5203678812341577633" depart="0.00" departLane="0" departPos="77.55" departSpeed="max" arrivalLane="0" arrivalPos="39.51">
        <route edges="-gneE14 -gneE13 -gneE11 gneE12 -gneE15"/>
    </vehicle>
    <vehicle id="-flow-random-route-3ac053a5-5424-48c2-a958-4437b962c394--4454444608107602036-14-0.0" type="actor-car-5203678812341577633" depart="0.00" departLane="0" departPos="2.57" departSpeed="max" arrivalLane="0" arrivalPos="93.48">
        <route edges="gneE14 gneE15 -gneE12 gneE11 gneE13"/>
    </vehicle>
    <vehicle id="-flow-random-route-4a812257-b707-4b36-a4e5-f334cd9af670--4454444608107602036-13-0.0" type="actor-car-5203678812341577633" depart="0.00" departLane="0" departPos="45.47" departSpeed="max" arrivalLane="0" arrivalPos="62.53">
        <route edges="gneE12 -gneE15 -gneE14 -gneE13 -gneE11 gneE12"/>
    </vehicle>
    <vehicle id="-flow-random-route-4dcf2c69-29df-46d1-ba13-81b203a0780c--4454444608107602036-1-0.0" type="actor-car-5203678812341577633" depart="0.00" departLane="0" departPos="63.68" departSpeed="max" arrivalLane="0" arrivalPos="19.34">
        <route edges="gneE14 gneE15 -gneE12 gneE11 gneE13"/>
    </vehicle>
    <vehicle id="-flow-random-route-5037673c-8004-4fe1-a006-e038ffc838fb--4454444608107602036-9-0.0" type="actor-car-5203678812341577633" depart="0.00" departLane="0" departPos="36.42" departSpeed="max" arrivalLane="0" arrivalPos="20.79">
        <route edges="gneE15 -gneE12 gneE11 gneE13 gneE14 gneE15 gneE8 gneE9 gneE2 gneE12"/>
    </vehicle>
    <vehicle id="-flow-random-route-548a185d-0988-4872-a4e9-97dd2431873c--4454444608107602036-10-0.0" type="actor-car-5203678812341577633" depart="0.00" departLane="0" departPos="68.23" departSpeed="max" arrivalLane="0" arrivalPos="4.65">
        <route edges="gneE12 gneE8 gneE9"/>
    </vehicle>
    <vehicle id="-flow-random-route-5e2eef11-2429-4515-8e8f-8008de8fa642--4454444608107602036-11-0.0" type="actor-car-5203678812341577633" depart="0.00" departLane="0" departPos="36.07" departSpeed="max" arrivalLane="0" arrivalPos="26.35">
        <route edges="gneE12 gneE8 gneE9 gneE2 gneE12"/>
    </vehicle>
    <vehicle id="-flow-random-route-60848c7b-8496-4a17-90e2-443acd8a0c37--4454444608107602036-18-0.0" type="actor-car-5203678812341577633" depart="0.00" departLane="0" departPos="0.85" departSpeed="max" arrivalLane="0" arrivalPos="27.06">
        <route edges="gneE12 -gneE15 -gneE14 -gneE13 -gneE11 gneE12"/>
    </vehicle>
    <vehicle id="-flow-random-route-60bfdcca-5bf9-42ba-94b0-910a46204a89--4454444608107602036-2-0.0" type="actor-car-5203678812341577633" depart="0.00" departLane="0" departPos="56.02" departSpeed="max" arrivalLane="1" arrivalPos="4.81">
        <route edges="gneE8 gneE9 gneE2"/>
    </vehicle>
    <vehicle id="-flow-random-route-639fc813-278c-438f-885d-e125e36c9e3e--4454444608107602036-24-0.0" type="actor-car-5203678812341577633" depart="0.00" departLane="0" departPos="41.26" departSpeed="max" arrivalLane="0" arrivalPos="18.03">
        <route edges="gneE2 gneE12 -gneE15 -gneE14 -gneE13"/>
    </vehicle>
    <vehicle id="-flow-random-route-690d85d6-b466-461a-bff4-34cbc06fef56--4454444608107602036-17-0.0" type="actor-car-5203678812341577633" depart="0.00" departLane="0" departPos="22.06" departSpeed="max" arrivalLane="0" arrivalPos="73.89">
        <route edges="-gneE14 -gneE13 -gneE11 gneE12 gneE8 gneE9 gneE2 gneE11 gneE13 gneE14"/>
    </vehicle>
    <vehicle id="-flow-random-route-7dcabbf0-ac42-46f6-bfeb-bac90d560173--4454444608107602036-29-0.0" type="actor-car-5203678812341577633" depart="0.00" departLane="0" departPos="41.04" departSpeed="max" arrivalLane="1" arrivalPos="10.05">
        <route edges="-gneE13 -gneE11 gneE12 gneE8 gneE9 gneE2"/>
    </vehicle>
    <vehicle id="-flow-random-route-8ed1021e-df93-4332-9bc8-d504c8a1e934--4454444608107602036-26-0.0" type="actor-car-5203678812341577633" depart="0.00" departLane="0" departPos="29.29" departSpeed="max" arrivalLane="0" arrivalPos="49.45">
        <route edges="gneE13 gneE14 gneE15 -gneE12 gneE11"/>
    </vehicle>
    <vehicle id="-flow-random-route-99855b11-396a-40c3-8e99-4763048d682e--4454444608107602036-19-0.0" type="actor-car-5203678812341577633" depart="0.00" departLane="0" departPos="35.79" departSpeed="max" arrivalLane="0" arrivalPos="61.44">
        <route edges="-gneE15 -gneE14 -gneE13 -gneE11 gneE12"/>
    </vehicle>
    <vehicle id="-flow-random-route-b289cbe2-3b65-4656-868c-323fdcf4ad8e--4454444608107602036-5-0.0" type="actor-car-5203678812341577633" depart="0.00" departLane="0" departPos="10.46" departSpeed="max" arrivalLane="0" arrivalPos="16.57">
        <route edges="gneE11 gneE13 gneE14 gneE15 -gneE12"/>
    </vehicle>
    <vehicle id="-flow-random-route-b96663d2-88a2-435a-987a-0c852af045d4--4454444608107602036-16-0.0" type="actor-car-5203678812341577633" depart="0.00" departLane="1" departPos="40.85" departSpeed="max" arrivalLane="0" arrivalPos="30.50">
        <route edges="gneE9 gneE2 gneE11"/>
    </vehicle>
    <vehicle id="-flow-random-route-cc559552-ba89-45d3-9751-456f543fcb7c--4454444608107602036-23-0.0" type="actor-car-5203678812341577633" depart="0.00" departLane="0" departPos="103.85" departSpeed="max" arrivalLane="0" arrivalPos="11.20">
        <route edges="-gneE12 gneE11 gneE13 gneE14 gneE15"/>
    </vehicle>
    <vehicle id="-flow-random-route-cceae6af-30fd-4304-bf77-921480aed4f7--4454444608107602036-22-0.0" type="actor-car-5203678812341577633" depart="0.00" departLane="0" departPos="31.59" departSpeed="max" arrivalLane="0" arrivalPos="42.51">
        <route edges="gneE15 -gneE12 gneE11 gneE13 gneE14"/>
    </vehicle>
    <vehicle id="-flow-random-route-cd0e7eaa-9098-45c1-89f7-bc8bc481c65d--4454444608107602036-15-0.0" type="actor-car-5203678812341577633" depart="0.00" departLane="0" departPos="102.33" departSpeed="max" arrivalLane="0" arrivalPos="23.88">
        <route edges="gneE14 gneE15 -gneE12 gneE11 gneE13 gneE14 gneE15 gneE8 gneE9 gneE2"/>
    </vehicle>
    <vehicle id="-flow-random-route-d0e92c80-427f-46cd-b506-d8f539cbd20f--4454444608107602036-8-0.0" type="actor-car-5203678812341577633" depart="0.00" departLane="0" departPos="10.47" departSpeed="max" arrivalLane="0" arrivalPos="77.88">
        <route edges="-gneE11 gneE12 gneE8 gneE9 gneE2 gneE11 gneE13 gneE14 gneE15 -gneE12"/>
    </vehicle>
    <vehicle id="-flow-random-route-d6d07554-5943-4f87-9a23-5154b57b58fb--4454444608107602036-20-0.0" type="actor-car-5203678812341577633" depart="0.00" departLane="0" departPos="25.52" departSpeed="max" arrivalLane="0" arrivalPos="32.84">
        <route edges="-gneE15 -gneE14 -gneE13 -gneE11 gneE12 gneE8"/>
    </vehicle>
    <vehicle id="-flow-random-route-f21b5c64-586a-4aae-bf9a-2e63ed0dbf1d--4454444608107602036-27-0.0" type="actor-car-5203678812341577633" depart="0.00" departLane="0" departPos="38.66" departSpeed="max" arrivalLane="1" arrivalPos="23.48">
        <route edges="gneE2 gneE12 gneE8"/>
    </vehicle>
    <vehicle id="-flow-random-route-fa3c70d2-52ae-495c-8655-e23a2cc63db9--4454444608107602036-0-0.0" type="actor-car-5203678812341577633" depart="0.00" departLane="0" departPos="22.44" departSpeed="max" arrivalLane="0" arrivalPos="114.48">
        <route edges="gneE12 gneE8 gneE9 gneE2 gneE12"/>
    </vehicle>
    <vehicle id="-flow-random-route-fa7adb50-410a-49d4-b63e-91c31737c59c--4454444608107602036-4-0.0" type="actor-car-5203678812341577633" depart="0.00" departLane="0" departPos="97.81" departSpeed="max" arrivalLane="0" arrivalPos="75.07">
        <route edges="-gneE14 -gneE13 -gneE11 gneE12 gneE8 gneE9 gneE2 gneE11 gneE13 gneE14"/>
    </vehicle>
    <vehicle id="-flow-random-route-ff4edeac-b9c1-4ff3-89fc-5686c6efea00--4454444608107602036-25-0.0" type="actor-car-5203678812341577633" depart="0.00" departLane="0" departPos="29.97" departSpeed="max" arrivalLane="0" arrivalPos="7.56">
        <route edges="gneE2 gneE11 gneE13 gneE14 gneE15"/>
    </vehicle>
    <vehicle id="-flow-random-route-ffbdf8a8-2639-43de-8fd0-f903a178a14c--4454444608107602036-21-0.0" type="actor-car-5203678812341577633" depart="0.00" departLane="1" departPos="52.50" departSpeed="max" arrivalLane="0" arrivalPos="47.39">
        <route edges="gneE8 gneE9 gneE2 gneE12 gneE8 gneE9 gneE2 gneE11 gneE13 gneE14"/>
    </vehicle>
    <vehicle id="-flow-random-route-012b251c-a92e-44b9-86ca-b85164b32033--4454444608107602036-3-0.1" type="actor-car-5203678812341577633" depart="120.00" departLane="0" departPos="6.12" departSpeed="max" arrivalLane="0" arrivalPos="54.03">
        <route edges="gneE15 -gneE12 gneE11 gneE13 gneE14 gneE15 gneE8 gneE9 gneE2 gneE12"/>
    </vehicle>
    <vehicle id="-flow-random-route-0fb25f8c-57a3-46c9-9219-42c838efd7dc--4454444608107602036-12-0.1" type="actor-car-5203678812341577633" depart="120.00" departLane="0" departPos="37.51" departSpeed="max" arrivalLane="0" arrivalPos="44.48">
        <route edges="gneE9 gneE2 gneE12 -gneE15 -gneE14 -gneE13 -gneE11 gneE12 gneE8 gneE9"/>
    </vehicle>
    <vehicle id="-flow-random-route-243a7b07-6ee9-440c-9cc3-f13884938699--4454444608107602036-7-0.1" type="actor-car-5203678812341577633" depart="120.00" departLane="0" departPos="48.96" departSpeed="max" arrivalLane="1" arrivalPos="39.54">
        <route edges="-gneE14 -gneE13 -gneE11 gneE12 -gneE15 -gneE14 -gneE13 -gneE11 gneE12 gneE8"/>
    </vehicle>
    <vehicle id="-flow-random-route-2f09da53-d817-4987-9613-bec66320bfd6--4454444608107602036-6-0.1" type="actor-car-5203678812341577633" depart="120.00" departLane="0" departPos="88.28" departSpeed="max" arrivalLane="0" arrivalPos="85.30">
        <route edges="-gneE12 gneE11 gneE13"/>
    </vehicle>
    <vehicle id="-flow-random-route-300153f4-c1bf-46f3-bd08-acf12286004b--4454444608107602036-28-0.1" type="actor-car-5203678812341577633" depart="120.00" departLane="0" departPos="77.55" departSpeed="max" arrivalLane="0" arrivalPos="39.51">
        <route edges="-gneE14 -gneE13 -gneE11 gneE12 -gneE15"/>
    </vehicle>
    <vehicle id="-flow-random-route-3ac053a5-5424-48c2-a958-4437b962c394--4454444608107602036-14-0.1" type="actor-car-5203678812341577633" depart="120.00" departLane="0" departPos="2.57" departSpeed="max" arrivalLane="0" arrivalPos="93.48">
        <route edges="gneE14 gneE15 -gneE12 gneE11 gneE13"/>
    </vehicle>
    <vehicle id="-flow-random-route-4a812257-b707-4b36-a4e5-f334cd9af670--4454444608107602036-13-0.1" type="actor-car-5203678812341577633" depart="120.00" departLane="0" departPos="45.47" departSpeed="max" arrivalLane="0" arrivalPos="62.53">
        <route edges="gneE12 -gneE15 -gneE14 -gneE13 -gneE11 gneE12"/>
    </vehicle>
    <vehicle id="-flow-random-route-4dcf2c69-29df-46d1-ba13-81b203a0780c--4454444608107602036-1-0.1" type="actor-car-5203678812341577633" depart="120.00" departLane="0" departPos="63.68" departSpeed="max" arrivalLane="0" arrivalPos="19.34">
        <route edges="gneE14 gneE15 -gneE12 gneE11 gneE13"/>
    </vehicle>
    <vehicle id="-flow-random-route-5037673c-8004-4fe1-a006-e038ffc838fb--4454444608107602036-9-0.1" type="actor-car-5203678812341577633" depart="120.00" departLane="0" departPos="36.42" departSpeed="max" arrivalLane="0" arrivalPos="20.79">
        <route edges="gneE15 -gneE12 gneE11 gneE13 gneE14 gneE15 gneE8 gneE9 gneE2 gneE12"/>
    </vehicle>
    <vehicle id="-flow-random-route-548a185d-0988-4872-a4e9-97dd2431873c--4454444608107602036-10-0.1" type="actor-car-5203678812341577633" depart="120.00" departLane="0" departPos="68.23" departSpeed="max" arrivalLane="0" arrivalPos="4.65">
        <route edges="gneE12 gneE8 gneE9"/>
    </vehicle>
    <vehicle id="-flow-random-route-5e2eef11-2429-4515-8e8f-8008de8fa642--4454444608107602036-11-0.1" type="actor-car-5203678812341577633" depart="120.00" departLane="0" departPos="36.07" departSpeed="max" arrivalLane="0" arrivalPos="26.35">
        <route edges="gneE12 gneE8 gneE9 gneE2 gneE12"/>
    </vehicle>
    <vehicle id="-flow-random-route-60848c7b-8496-4a17-90e2-443acd8a0c37--4454444608107602036-18-0.1" type="actor-car-5203678812341577633" depart="120.00" departLane="0" departPos="0.85" departSpeed="max" arrivalLane="0" arrivalPos="27.06">
        <route edges="gneE12 -gneE15 -gneE14 -gneE13 -gneE11 gneE12"/>
    </vehicle>
    <vehicle id="-flow-random-route-60bfdcca-5bf9-42ba-94b0-910a46204a89--4454444608107602036-2-0.1" type="actor-car-5203678812341577633" depart="120.00" departLane="0" departPos="56.02" departSpeed="max" arrivalLane="1" arrivalPos="4.81">
        <route edges="gneE8 gneE9 gneE2"/>
    </vehicle>
    <vehicle id="-flow-random-route-639fc813-278c-438f-885d-e125e36c9e3e--4454444608107602036-24-0.1" type="actor-car-5203678812341577633" depart="120.00" departLane="0" departPos="41.26" departSpeed="max" arrivalLane="0" arrivalPos="18.03">
        <route edges="gneE2 gneE12 -gneE15 -gneE14 -gneE13"/>
    </vehicle>
    <vehicle id="-flow-random-route-690d85d6-b466-461a-bff4-34cbc06fef56--4454444608107602036-17-0.1" type="actor-car-5203678812341577633" depart="120.00" departLane="0" departPos="22.06" departSpeed="max" arrivalLane="0" arrivalPos="73.89">
        <route edges="-gneE14 -gneE13 -gneE11 gneE12 gneE8 gneE9 gneE2 gneE11 gneE13 gneE14"/>
    </vehicle>
    <vehicle id="-flow-random-route-7dcabbf0-ac42-46f6-bfeb-bac90d560173--4454444608107602036-29-0.1" type="actor-car-5203678812341577633" depart="120.00" departLane="0" departPos="41.04" departSpeed="max" arrivalLane="1" arrivalPos="10.05">
        <route edges="-gneE13 -gneE11 gneE12 gneE8 gneE9 gneE2"/>
    </vehicle>
    <vehicle id="-flow-random-route-8ed1021e-df93-4332-9bc8-d504c8a1e934--4454444608107602036-26-0.1" type="actor-car-5203678812341577633" depart="120.00" departLane="0" departPos="29.29" departSpeed="max" arrivalLane="0" arrivalPos="49.45">
        <route edges="gneE13 gneE14 gneE15 -gneE12 gneE11"/>
    </vehicle>
    <vehicle id="-flow-random-route-99855b11-396a-40c3-8e99-4763048d682e--4454444608107602036-19-0.1" type="actor-car-5203678812341577633" depart="120.00" departLane="0" departPos="35.79" departSpeed="max" arrivalLane="0" arrivalPos="61.44">
        <route edges="-gneE15 -gneE14 -gneE13 -gneE11 gneE12"/>
    </vehicle>
    <vehicle id="-flow-random-route-b289cbe2-3b65-4656-868c-323fdcf4ad8e--4454444608107602036-5-0.1" type="actor-car-5203678812341577633" depart="120.00" departLane="0" departPos="10.46" departSpeed="max" arrivalLane="0" arrivalPos="16.57">
        <route edges="gneE11 gneE13 gneE14 gneE15 -gneE12"/>
    </vehicle>
    <vehicle id="-flow-random-route-b96663d2-88a2-435a-987a-0c852af045d4--4454444608107602036-16-0.1" type="actor-car-5203678812341577633" depart="120.00" departLane="1" departPos="40.85" departSpeed="max" arrivalLane="0" arrivalPos="30.50">
        <route edges="gneE9 gneE2 gneE11"/>
    </vehicle>
    <vehicle id="-flow-random-route-cc559552-ba89-45d3-9751-456f543fcb7c--4454444608107602036-23-0.1" type="actor-car-5203678812341577633" depart="120.00" departLane="0" departPos="103.85" departSpeed="max" arrivalLane="0" arrivalPos="11.20">
        <route edges="-gneE12 gneE11 gneE13 gneE14 gneE15"/>
    </vehicle>
    <vehicle id="-flow-random-route-cceae6af-30fd-4304-bf77-921480aed4f7--4454444608107602036-22-0.1" type="actor-car-5203678812341577633" depart="120.00" departLane="0" departPos="31.59" departSpeed="max" arrivalLane="0" arrivalPos="42.51">
        <route edges="gneE15 -gneE12 gneE11 gneE13 gneE14"/>
    </vehicle>
    <vehicle id="-flow-random-route-cd0e7eaa-9098-45c1-89f7-bc8bc481c65d--4454444608107602036-15-0.1" type="actor-car-5203678812341577633" depart="120.00" departLane="0" departPos="102.33" departSpeed="max" arrivalLane="0" arrivalPos="23.88">
        <route edges="gneE14 gneE15 -gneE12 gneE11 gneE13 gneE14 gneE15 gneE8 gneE9 gneE2"/>
    </vehicle>
    <vehicle id="-flow-random-route-d0e92c80-427f-46cd-b506-d8f539cbd20f--4454444608107602036-8-0.1" type="actor-car-5203678812341577633" depart="120.00" departLane="0" departPos="10.47" departSpeed="max" arrivalLane="0" arrivalPos="77.88">
        <route edges="-gneE11 gneE12 gneE8 gneE9 gneE2 gneE11 gneE13 gneE14 gneE15 -gneE12"/>
    </vehicle>
    <vehicle id="-flow-random-route-d6d07554-5943-4f87-9a23-5154b57b58fb--4454444608107602036-20-0.1" type="actor-car-5203678812341577633" depart="120.00" departLane="0" departPos="25.52" departSpeed="max" arrivalLane="0" arrivalPos="32.84">
        <route edges="-gneE15 -gneE14 -gneE13 -gneE11 gneE12 gneE8"/>
    </vehicle>
    <vehicle id="-flow-random-route-f21b5c64-586a-4aae-bf9a-2e63ed0dbf1d--4454444608107602036-27-0.1" type="actor-car-5203678812341577633" depart="120.00" departLane="0" departPos="38.66" departSpeed="max" arrivalLane="1" arrivalPos="23.48">
        <route edges="gneE2 gneE12 gneE8"/>
    </vehicle>
    <vehicle id="-flow-random-route-fa3c70d2-52ae-495c-8655-e23a2cc63db9--4454444608107602036-0-0.1" type="actor-car-5203678812341577633" depart="120.00" departLane="0" departPos="22.44" departSpeed="max" arrivalLane="0" arrivalPos="114.48">
        <route edges="gneE12 gneE8 gneE9 gneE2 gneE12"/>
    </vehicle>
    <vehicle id="-flow-random-route-fa7adb50-410a-49d4-b63e-91c31737c59c--4454444608107602036-4-0.1" type="actor-car-5203678812341577633" depart="120.00" departLane="0" departPos="97.81" departSpeed="max" arrivalLane="0" arrivalPos="75.07">
        <route edges="-gneE14 -gneE13 -gneE11 gneE12 gneE8 gneE9 gneE2 gneE11 gneE13 gneE14"/>
    </vehicle>
    <vehicle id="-flow-random-route-ff4edeac-b9c1-4ff3-89fc-5686c6efea00--4454444608107602036-25-0.1" type="actor-car-5203678812341577633" depart="120.00" departLane="0" departPos="29.97" departSpeed="max" arrivalLane="0" arrivalPos="7.56">
        <route edges="gneE2 gneE11 gneE13 gneE14 gneE15"/>
    </vehicle>
    <vehicle id="-flow-random-route-ffbdf8a8-2639-43de-8fd0-f903a178a14c--4454444608107602036-21-0.1" type="actor-car-5203678812341577633" depart="120.00" departLane="1" departPos="52.50" departSpeed="max" arrivalLane="0" arrivalPos="47.39">
        <route edges="gneE8 gneE9 gneE2 gneE12 gneE8 gneE9 gneE2 gneE11 gneE13 gneE14"/>
    </vehicle>
    <vehicle id="-flow-random-route-012b251c-a92e-44b9-86ca-b85164b32033--4454444608107602036-3-0.2" type="actor-car-5203678812341577633" depart="240.00" departLane="0" departPos="6.12" departSpeed="max" arrivalLane="0" arrivalPos="54.03">
        <route edges="gneE15 -gneE12 gneE11 gneE13 gneE14 gneE15 gneE8 gneE9 gneE2 gneE12"/>
    </vehicle>
    <vehicle id="-flow-random-route-0fb25f8c-57a3-46c9-9219-42c838efd7dc--4454444608107602036-12-0.2" type="actor-car-5203678812341577633" depart="240.00" departLane="0" departPos="37.51" departSpeed="max" arrivalLane="0" arrivalPos="44.48">
        <route edges="gneE9 gneE2 gneE12 -gneE15 -gneE14 -gneE13 -gneE11 gneE12 gneE8 gneE9"/>
    </vehicle>
    <vehicle id="-flow-random-route-243a7b07-6ee9-440c-9cc3-f13884938699--4454444608107602036-7-0.2" type="actor-car-5203678812341577633" depart="240.00" departLane="0" departPos="48.96" departSpeed="max" arrivalLane="1" arrivalPos="39.54">
        <route edges="-gneE14 -gneE13 -gneE11 gneE12 -gneE15 -gneE14 -gneE13 -gneE11 gneE12 gneE8"/>
    </vehicle>
    <vehicle id="-flow-random-route-2f09da53-d817-4987-9613-bec66320bfd6--4454444608107602036-6-0.2" type="actor-car-5203678812341577633" depart="240.00" departLane="0" departPos="88.28" departSpeed="max" arrivalLane="0" arrivalPos="85.30">
        <route edges="-gneE12 gneE11 gneE13"/>
    </vehicle>
    <vehicle id="-flow-random-route-300153f4-c1bf-46f3-bd08-acf12286004b--4454444608107602036-28-0.2" type="actor-car-5203678812341577633" depart="240.00" departLane="0" departPos="77.55" departSpeed="max" arrivalLane="0" arrivalPos="39.51">
        <route edges="-gneE14 -gneE13 -gneE11 gneE12 -gneE15"/>
    </vehicle>
    <vehicle id="-flow-random-route-3ac053a5-5424-48c2-a958-4437b962c394--4454444608107602036-14-0.2" type="actor-car-5203678812341577633" depart="240.00" departLane="0" departPos="2.57" departSpeed="max" arrivalLane="0" arrivalPos="93.48">
        <route edges="gneE14 gneE15 -gneE12 gneE11 gneE13"/>
    </vehicle>
    <vehicle id="-flow-random-route-4a812257-b707-4b36-a4e5-f334cd9af670--4454444608107602036-13-0.2" type="actor-car-5203678812341577633" depart="240.00" departLane="0" departPos="45.47" departSpeed="max" arrivalLane="0" arrivalPos="62.53">
        <route edges="gneE12 -gneE15 -gneE14 -gneE13 -gneE11 gneE12"/>
    </vehicle>
    <vehicle id="-flow-random-route-4dcf2c69-29df-46d1-ba13-81b203a0780c--4454444608107602036-1-0.2" type="actor-car-5203678812341577633" depart="240.00" departLane="0" departPos="63.68" departSpeed="max" arrivalLane="0" arrivalPos="19.34">
        <route edges="gneE14 gneE15 -gneE12 gneE11 gneE13"/>
    </vehicle>
    <vehicle id="-flow-random-route-5037673c-8004-4fe1-a006-e038ffc838fb--4454444608107602036-9-0.2" type="actor-car-5203678812341577633" depart="240.00" departLane="0" departPos="36.42" departSpeed="max" arrivalLane="0" arrivalPos="20.79">
        <route edges="gneE15 -gneE12 gneE11 gneE13 gneE14 gneE15 gneE8 gneE9 gneE2 gneE12"/>
    </vehicle>
    <vehicle id="-flow-random-route-548a185d-0988-4872-a4e9-97dd2431873c--4454444608107602036-10-0.2" type="actor-car-5203678812341577633" depart="240.00" departLane="0" departPos="68.23" departSpeed="max" arrivalLane="0" arrivalPos="4.65">
        <route edges="gneE12 gneE8 gneE9"/>
    </vehicle>
    <vehicle id="-flow-random-route-5e2eef11-2429-4515-8e8f-8008de8fa642--4454444608107602036-11-0.2" type="actor-car-5203678812341577633" depart="240.00" departLane="0" departPos="36.07" departSpeed="max" arrivalLane="0" arrivalPos="26.35">
        <route edges="gneE12 gneE8 gneE9 gneE2 gneE12"/>
    </vehicle>
    <vehicle id="-flow-random-route-60848c7b-8496-4a17-90e2-443acd8a0c37--4454444608107602036-18-0.2" type="actor-car-5203678812341577633" depart="240.00" departLane="0" departPos="0.85" departSpeed="max" arrivalLane="0" arrivalPos="27.06">
        <route edges="gneE12 -gneE15 -gneE14 -gneE13 -gneE11 gneE12"/>
    </vehicle>
    <vehicle id="-flow-random-route-60bfdcca-5bf9-42ba-94b0-910a46204a89--4454444608107602036-2-0.2" type="actor-car-5203678812341577633" depart="240.00" departLane="0" departPos="56.02" departSpeed="max" arrivalLane="1" arrivalPos="4.81">
        <route edges="gneE8 gneE9 gneE2"/>
    </vehicle>
    <vehicle id="-flow-random-route-639fc813-278c-438f-885d-e125e36c9e3e--4454444608107602036-24-0.2" type="actor-car-5203678812341577633" depart="240.00" departLane="0" departPos="41.26" departSpeed="max" arrivalLane="0" arrivalPos="18.03">
        <route edges="gneE2 gneE12 -gneE15 -gneE14 -gneE13"/>
    </vehicle>
    <vehicle id="-flow-random-route-690d85d6-b466-461a-bff4-34cbc06fef56--4454444608107602036-17-0.2" type="actor-car-5203678812341577633" depart="240.00" departLane="0" departPos="22.06" departSpeed="max" arrivalLane="0" arrivalPos="73.89">
        <route edges="-gneE14 -gneE13 -gneE11 gneE12 gneE8 gneE9 gneE2 gneE11 gneE13 gneE14"/>
    </vehicle>
    <vehicle id="-flow-random-route-7dcabbf0-ac42-46f6-bfeb-bac90d560173--4454444608107602036-29-0.2" type="actor-car-5203678812341577633" depart="240.00" departLane="0" departPos="41.04" departSpeed="max" arrivalLane="1" arrivalPos="10.05">
        <route edges="-gneE13 -gneE11 gneE12 gneE8 gneE9 gneE2"/>
    </vehicle>
    <vehicle id="-flow-random-route-8ed1021e-df93-4332-9bc8-d504c8a1e934--4454444608107602036-26-0.2" type="actor-car-5203678812341577633" depart="240.00" departLane="0" departPos="29.29" departSpeed="max" arrivalLane="0" arrivalPos="49.45">
        <route edges="gneE13 gneE14 gneE15 -gneE12 gneE11"/>
    </vehicle>
    <vehicle id="-flow-random-route-99855b11-396a-40c3-8e99-4763048d682e--4454444608107602036-19-0.2" type="actor-car-5203678812341577633" depart="240.00" departLane="0" departPos="35.79" departSpeed="max" arrivalLane="0" arrivalPos="61.44">
        <route edges="-gneE15 -gneE14 -gneE13 -gneE11 gneE12"/>
    </vehicle>
    <vehicle id="-flow-random-route-b289cbe2-3b65-4656-868c-323fdcf4ad8e--4454444608107602036-5-0.2" type="actor-car-5203678812341577633" depart="240.00" departLane="0" departPos="10.46" departSpeed="max" arrivalLane="0" arrivalPos="16.57">
        <route edges="gneE11 gneE13 gneE14 gneE15 -gneE12"/>
    </vehicle>
    <vehicle id="-flow-random-route-b96663d2-88a2-435a-987a-0c852af045d4--4454444608107602036-16-0.2" type="actor-car-5203678812341577633" depart="240.00" departLane="1" departPos="40.85" departSpeed="max" arrivalLane="0" arrivalPos="30.50">
        <route edges="gneE9 gneE2 gneE11"/>
    </vehicle>
    <vehicle id="-flow-random-route-cc559552-ba89-45d3-9751-456f543fcb7c--4454444608107602036-23-0.2" type="actor-car-5203678812341577633" depart="240.00" departLane="0" departPos="103.85" departSpeed="max" arrivalLane="0" arrivalPos="11.20">
        <route edges="-gneE12 gneE11 gneE13 gneE14 gneE15"/>
    </vehicle>
    <vehicle id="-flow-random-route-cceae6af-30fd-4304-bf77-921480aed4f7--4454444608107602036-22-0.2" type="actor-car-5203678812341577633" depart="240.00" departLane="0" departPos="31.59" departSpeed="max" arrivalLane="0" arrivalPos="42.51">
        <route edges="gneE15 -gneE12 gneE11 gneE13 gneE14"/>
    </vehicle>
    <vehicle id="-flow-random-route-cd0e7eaa-9098-45c1-89f7-bc8bc481c65d--4454444608107602036-15-0.2" type="actor-car-5203678812341577633" depart="240.00" departLane="0" departPos="102.33" departSpeed="max" arrivalLane="0" arrivalPos="23.88">
        <route edges="gneE14 gneE15 -gneE12 gneE11 gneE13 gneE14 gneE15 gneE8 gneE9 gneE2"/>
    </vehicle>
    <vehicle id="-flow-random-route-d0e92c80-427f-46cd-b506-d8f539cbd20f--4454444608107602036-8-0.2" type="actor-car-5203678812341577633" depart="240.00" departLane="0" departPos="10.47" departSpeed="max" arrivalLane="0" arrivalPos="77.88">
        <route edges="-gneE11 gneE12 gneE8 gneE9 gneE2 gneE11 gneE13 gneE14 gneE15 -gneE12"/>
    </vehicle>
    <vehicle id="-flow-random-route-d6d07554-5943-4f87-9a23-5154b57b58fb--4454444608107602036-20-0.2" type="actor-car-5203678812341577633" depart="240.00" departLane="0" departPos="25.52" departSpeed="max" arrivalLane="0" arrivalPos="32.84">
        <route edges="-gneE15 -gneE14 -gneE13 -gneE11 gneE12 gneE8"/>
    </vehicle>
    <vehicle id="-flow-random-route-f21b5c64-586a-4aae-bf9a-2e63ed0dbf1d--4454444608107602036-27-0.2" type="actor-car-5203678812341577633" depart="240.00" departLane="0" departPos="38.66" departSpeed="max" arrivalLane="1" arrivalPos="23.48">
        <route edges="gneE2 gneE12 gneE8"/>
    </vehicle>
    <vehicle id="-flow-random-route-fa3c70d2-52ae-495c-8655-e23a2cc63db9--4454444608107602036-0-0.2" type="actor-car-5203678812341577633" depart="240.00" departLane="0" departPos="22.44" departSpeed="max" arrivalLane="0" arrivalPos="114.48">
        <route edges="gneE12 gneE8 gneE9 gneE2 gneE12"/>
    </vehicle>
    <vehicle id="-flow-random-route-fa7adb50-410a-49d4-b63e-91c31737c59c--4454444608107602036-4-0.2" type="actor-car-5203678812341577633" depart="240.00" departLane="0" departPos="97.81" departSpeed="max" arrivalLane="0" arrivalPos="75.07">