<?xml version="1.0" encoding="UTF-8"?>

<!-- generated on Sat Sep  5 16:48:20 2020 by Eclipse SUMO duarouter Version 1.6.0
<configuration xmlns:xsi="http://www.w3.org/2001/XMLSchema-instance" xsi:noNamespaceSchemaLocation="http://sumo.dlr.de/xsd/duarouterConfiguration.xsd">

    <input>
        <net-file value="../dataset_public/sharp_loop/sharploop_a/map.net.xml"/>
        <route-files value="/tmp/tmpd46v_jyj/trips.trips.xml"/>
    </input>

    <output>
        <output-file value="../dataset_public/sharp_loop/sharploop_a/traffic/30_patient_car.rou.xml"/>
        <alternatives-output value="../dataset_public/sharp_loop/sharploop_a/traffic/30_patient_car.rou.alt.xml"/>
    </output>

    <processing>
        <unsorted-input value="true"/>
        <repair value="true"/>
    </processing>

    <report>
        <error-log value="/tmp/smarts/_duarouter_routing/traffic/30_patient_car.log"/>
        <no-step-log value="true"/>
    </report>

    <random_number>
        <seed value="42"/>
    </random_number>

</configuration>
-->

<routes xmlns:xsi="http://www.w3.org/2001/XMLSchema-instance" xsi:noNamespaceSchemaLocation="http://sumo.dlr.de/xsd/routes_file.xsd">
    <vType id="actor-car-7305225948339631608" minGap="2.50" speedFactor="normc(0.50,0.20,0.20,2.00)" vClass="passenger" impatience="0.50" lcCooperative="0.5" lcImpatience="0" jmDriveAfterYellowTime="1.0" accel="2.6" decel="4.5" sigma="0.5"/>
    <vehicle id="-flow-random-route-0b3e2164-90ef-492b-9b27-e7d6fe9b3e52-1189637186964144139-18-0.0" type="actor-car-7305225948339631608" depart="0.00" departLane="1" departPos="212.88" departSpeed="max" arrivalLane="0" arrivalPos="33.96">
        <route edges="edge1 edge0"/>
    </vehicle>
    <vehicle id="-flow-random-route-1581bad3-4174-4855-981f-d151a53dcd26-1189637186964144139-5-0.0" type="actor-car-7305225948339631608" depart="0.00" departLane="1" departPos="83.63" departSpeed="max" arrivalLane="2" arrivalPos="37.50">
        <route edges="edge1 edge0"/>
    </vehicle>
    <vehicle id="-flow-random-route-1622d347-25e4-4d9b-ab0d-63756654395d-1189637186964144139-1-0.0" type="actor-car-7305225948339631608" depart="0.00" departLane="1" departPos="106.20" departSpeed="max" arrivalLane="2" arrivalPos="88.79">
        <route edges="edge0 edge1"/>
    </vehicle>
    <vehicle id="-flow-random-route-167b73d1-e05d-4dec-a76b-70d275423fe2-1189637186964144139-11-0.0" type="actor-car-7305225948339631608" depart="0.00" departLane="0" departPos="88.22" departSpeed="max" arrivalLane="2" arrivalPos="42.52">
        <route edges="edge0 edge1"/>
    </vehicle>
    <vehicle id="-flow-random-route-1ed83e8f-3b65-4cc4-a00c-2082a06f4a33-1189637186964144139-20-0.0" type="actor-car-7305225948339631608" depart="0.00" departLane="2" departPos="142.67" departSpeed="max" arrivalLane="2" arrivalPos="49.81">
        <route edges="edge0 edge1"/>
    </vehicle>
    <vehicle id="-flow-random-route-24a0c31d-9e45-48a7-ad68-33332e18636f-1189637186964144139-29-0.0" type="actor-car-7305225948339631608" depart="0.00" departLane="2" departPos="151.73" departSpeed="max" arrivalLane="2" arrivalPos="175.37">
        <route edges="edge0 edge1"/>
    </vehicle>
    <vehicle id="-flow-random-route-298f9b5f-dc26-4578-ac92-b316c3ea2089-1189637186964144139-16-0.0" type="actor-car-7305225948339631608" depart="0.00" departLane="2" departPos="20.15" departSpeed="max" arrivalLane="2" arrivalPos="401.93">
        <route edges="edge0 edge1"/>
    </vehicle>
    <vehicle id="-flow-random-route-2b68f472-9b46-4562-9855-3b4580077aa4-1189637186964144139-24-0.0" type="actor-car-7305225948339631608" depart="0.00" departLane="2" departPos="98.32" departSpeed="max" arrivalLane="1" arrivalPos="220.55">
        <route edges="edge0 edge1"/>
    </vehicle>
    <vehicle id="-flow-random-route-2bacceda-47e3-4051-87e9-9536d12434e2-1189637186964144139-22-0.0" type="actor-car-7305225948339631608" depart="0.00" departLane="1" departPos="167.03" departSpeed="max" arrivalLane="0" arrivalPos="133.74">
        <route edges="edge1 edge0"/>
    </vehicle>
    <vehicle id="-flow-random-route-2be80d6e-233e-4459-b282-3287d30a1cdf-1189637186964144139-23-0.0" type="actor-car-7305225948339631608" depart="0.00" departLane="1" departPos="71.30" departSpeed="max" arrivalLane="1" arrivalPos="14.73">
        <route edges="edge1 edge0"/>
    </vehicle>
    <vehicle id="-flow-random-route-2e536a3e-ec5e-48ee-9280-040452932cad-1189637186964144139-6-0.0" type="actor-car-7305225948339631608" depart="0.00" departLane="2" departPos="115.04" departSpeed="max" arrivalLane="2" arrivalPos="140.31">
        <route edges="edge0 edge1"/>
    </vehicle>
    <vehicle id="-flow-random-route-41b30054-6fbd-48fe-bc3a-a39c9ac01d78-1189637186964144139-28-0.0" type="actor-car-7305225948339631608" depart="0.00" departLane="1" departPos="43.41" departSpeed="max" arrivalLane="1" arrivalPos="581.57">
        <route edges="edge0 edge1"/>
    </vehicle>
    <vehicle id="-flow-random-route-48d14dc3-e584-4a73-9a11-68e25f0688ad-1189637186964144139-15-0.0" type="actor-car-7305225948339631608" depart="0.00" departLane="0" departPos="32.24" departSpeed="max" arrivalLane="1" arrivalPos="93.11">
        <route edges="edge1 edge0"/>
    </vehicle>
    <vehicle id="-flow-random-route-49b21cdd-534a-4721-b1a2-9169f4b01c50-1189637186964144139-14-0.0" type="actor-car-7305225948339631608" depart="0.00" departLane="2" departPos="116.06" departSpeed="max" arrivalLane="2" arrivalPos="636.59">
        <route edges="edge0 edge1"/>
    </vehicle>
    <vehicle id="-flow-random-route-4f78580e-eeec-4143-83ce-ac4184d91410-1189637186964144139-4-0.0" type="actor-car-7305225948339631608" depart="0.00" departLane="2" departPos="645.63" departSpeed="max" arrivalLane="2" arrivalPos="104.62">
        <route edges="edge1 edge0"/>
    </vehicle>
    <vehicle id="-flow-random-route-51d2a405-3803-4f81-855c-2a302747ac06-1189637186964144139-2-0.0" type="actor-car-7305225948339631608" depart="0.00" departLane="1" departPos="254.36" departSpeed="max" arrivalLane="0" arrivalPos="136.92">
        <route edges="edge1 edge0"/>
    </vehicle>
    <vehicle id="-flow-random-route-5d53d462-d6dd-461d-8873-7ef5a6ac2a41-1189637186964144139-7-0.0" type="actor-car-7305225948339631608" depart="0.00" departLane="0" departPos="131.70" departSpeed="max" arrivalLane="0" arrivalPos="114.84">
        <route edges="edge0 edge1"/>
    </vehicle>
    <vehicle id="-flow-random-route-6b64aba5-d70b-4a78-b85d-8ba570c02aa8-1189637186964144139-17-0.0" type="actor-car-7305225948339631608" depart="0.00" departLane="0" departPos="42.43" departSpeed="max" arrivalLane="0" arrivalPos="609.99">
        <route edges="edge0 edge1"/>
    </vehicle>
    <vehicle id="-flow-random-route-6dbf2c92-44ba-4a54-b9b2-b6c647c3690a-1189637186964144139-0-0.0" type="actor-car-7305225948339631608" depart="0.00" departLane="0" departPos="112.19" departSpeed="max" arrivalLane="1" arrivalPos="545.75">
        <route edges="edge0 edge1"/>
    </vehicle>
    <vehicle id="-flow-random-route-751e4f41-afb9-4dac-b2ee-0a200017712b-1189637186964144139-12-0.0" type="actor-car-7305225948339631608" depart="0.00" departLane="2" departPos="386.38" departSpeed="max" arrivalLane="2" arrivalPos="33.54">
        <route edges="edge1 edge0"/>
    </vehicle>
    <vehicle id="-flow-random-route-9d0a5ee9-02a1-443c-8bad-0fdbe6448814-1189637186964144139-13-0.0" type="actor-car-7305225948339631608" depart="0.00" departLane="1" departPos="61.11" departSpeed="max" arrivalLane="0" arrivalPos="147.17">
        <route edges="edge0 edge1"/>
    </vehicle>
    <vehicle id="-flow-random-route-9e946a73-bb33-4d76-96e2-ad56d0fedaa7-1189637186964144139-25-0.0" type="actor-car-7305225948339631608" depart="0.00" departLane="0" departPos="461.26" departSpeed="max" arrivalLane="1" arrivalPos="150.07">
        <route edges="edge1 edge0"/>
    </vehicle>
    <vehicle id="-flow-random-route-ace81ef5-b7fb-4176-baf4-18577ecedec8-1189637186964144139-27-0.0" type="actor-car-7305225948339631608" depart="0.00" departLane="1" departPos="308.16" departSpeed="max" arrivalLane="2" arrivalPos="32.55">
        <route edges="edge1 edge0"/>
    </vehicle>
    <vehicle id="-flow-random-route-b31c8518-9615-436b-89e9-860c54f973e5-1189637186964144139-10-0.0" type="actor-car-7305225948339631608" depart="0.00" departLane="0" departPos="352.51" departSpeed="max" arrivalLane="0" arrivalPos="85.49">
        <route edges="edge1 edge0"/>
    </vehicle>
    <vehicle id="-flow-random-route-bc77355e-8516-4505-ac77-f94bb9a69b2f-1189637186964144139-19-0.0" type="actor-car-7305225948339631608" depart="0.00" departLane="2" departPos="8.25" departSpeed="max" arrivalLane="2" arrivalPos="686.49">
        <route edges="edge0 edge1"/>
    </vehicle>
    <vehicle id="-flow-random-route-c7c60375-2bed-4aed-994d-14e26401302d-1189637186964144139-8-0.0" type="actor-car-7305225948339631608" depart="0.00" departLane="2" departPos="683.45" departSpeed="max" arrivalLane="0" arrivalPos="112.90">
        <route edges="edge1 edge0"/>
    </vehicle>
    <vehicle id="-flow-random-route-d0fcd6d5-14c5-4c67-80fa-f3396582c4e6-1189637186964144139-9-0.0" type="actor-car-7305225948339631608" depart="0.00" departLane="1" departPos="33.33" departSpeed="max" arrivalLane="2" arrivalPos="361.30">
        <route edges="edge0 edge1"/>
    </vehicle>
    <vehicle id="-flow-random-route-d1477619-a7f1-4731-b371-6817e8da5e4f-1189637186964144139-26-0.0" type="actor-car-7305225948339631608" depart="0.00" departLane="2" departPos="146.92" departSpeed="max" arrivalLane="1" arrivalPos="31.01">
        <route edges="edge1 edge0"/>
    </vehicle>
    <vehicle id="-flow-random-route-dcf52f79-2dc9-406d-b769-3ca65e18c1bb-1189637186964144139-21-0.0" type="actor-car-7305225948339631608" depart="0.00" departLane="2" departPos="278.60" departSpeed="max" arrivalLane="0" arrivalPos="151.91">
        <route edges="edge1 edge0"/>
    </vehicle>
    <vehicle id="-flow-random-route-dd5fea91-1c45-4a92-a4c7-32485611bceb-1189637186964144139-3-0.0" type="actor-car-7305225948339631608" depart="0.00" departLane="1" departPos="27.20" departSpeed="max" arrivalLane="1" arrivalPos="26.69">
        <route edges="edge0 edge1"/>
    </vehicle>
    <vehicle id="-flow-random-route-0b3e2164-90ef-492b-9b27-e7d6fe9b3e52-1189637186964144139-18-0.1" type="actor-car-7305225948339631608" depart="120.00" departLane="1" departPos="212.88" departSpeed="max" arrivalLane="0" arrivalPos="33.96">
        <route edges="edge1 edge0"/>
    </vehicle>
    <vehicle id="-flow-random-route-1581bad3-4174-4855-981f-d151a53dcd26-1189637186964144139-5-0.1" type="actor-car-7305225948339631608" depart="120.00" departLane="1" departPos="83.63" departSpeed="max" arrivalLane="2" arrivalPos="37.50">
        <route edges="edge1 edge0"/>
    </vehicle>
    <vehicle id="-flow-random-route-1622d347-25e4-4d9b-ab0d-63756654395d-1189637186964144139-1-0.1" type="actor-car-7305225948339631608" depart="120.00" departLane="1" departPos="106.20" departSpeed="max" arrivalLane="2" arrivalPos="88.79">
        <route edges="edge0 edge1"/>
    </vehicle>
    <vehicle id="-flow-random-route-167b73d1-e05d-4dec-a76b-70d275423fe2-1189637186964144139-11-0.1" type="actor-car-7305225948339631608" depart="120.00" departLane="0" departPos="88.22" departSpeed="max" arrivalLane="2" arrivalPos="42.52">
        <route edges="edge0 edge1"/>
    </vehicle>
    <vehicle id="-flow-random-route-1ed83e8f-3b65-4cc4-a00c-2082a06f4a33-1189637186964144139-20-0.1" type="actor-car-7305225948339631608" depart="120.00" departLane="2" departPos="142.67" departSpeed="max" arrivalLane="2" arrivalPos="49.81">
        <route edges="edge0 edge1"/>
    </vehicle>
    <vehicle id="-flow-random-route-24a0c31d-9e45-48a7-ad68-33332e18636f-1189637186964144139-29-0.1" type="actor-car-7305225948339631608" depart="120.00" departLane="2" departPos="151.73" departSpeed="max" arrivalLane="2" arrivalPos="175.37">
        <route edges="edge0 edge1"/>
    </vehicle>
    <vehicle id="-flow-random-route-298f9b5f-dc26-4578-ac92-b316c3ea2089-1189637186964144139-16-0.1" type="actor-car-7305225948339631608" depart="120.00" departLane="2" departPos="20.15" departSpeed="max" arrivalLane="2" arrivalPos="401.93">
        <route edges="edge0 edge1"/>
    </vehicle>
    <vehicle id="-flow-random-route-2b68f472-9b46-4562-9855-3b4580077aa4-1189637186964144139-24-0.1" type="actor-car-7305225948339631608" depart="120.00" departLane="2" departPos="98.32" departSpeed="max" arrivalLane="1" arrivalPos="220.55">
        <route edges="edge0 edge1"/>
    </vehicle>
    <vehicle id="-flow-random-route-2bacceda-47e3-4051-87e9-9536d12434e2-1189637186964144139-22-0.1" type="actor-car-7305225948339631608" depart="120.00" departLane="1" departPos="167.03" departSpeed="max" arrivalLane="0" arrivalPos="133.74">
        <route edges="edge1 edge0"/>
    </vehicle>
    <vehicle id="-flow-random-route-2be80d6e-233e-4459-b282-3287d30a1cdf-1189637186964144139-23-0.1" type="actor-car-7305225948339631608" depart="120.00" departLane="1" departPos="71.30" departSpeed="max" arrivalLane="1" arrivalPos="14.73">
        <route edges="edge1 edge0"/>
    </vehicle>
    <vehicle id="-flow-random-route-2e536a3e-ec5e-48ee-9280-040452932cad-1189637186964144139-6-0.1" type="actor-car-7305225948339631608" depart="120.00" departLane="2" departPos="115.04" departSpeed="max" arrivalLane="2" arrivalPos="140.31">
        <route edges="edge0 edge1"/>
    </vehicle>
    <vehicle id="-flow-random-route-41b30054-6fbd-48fe-bc3a-a39c9ac01d78-1189637186964144139-28-0.1" type="actor-car-7305225948339631608" depart="120.00" departLane="1" departPos="43.41" departSpeed="max" arrivalLane="1" arrivalPos="581.57">
        <route edges="edge0 edge1"/>
    </vehicle>
    <vehicle id="-flow-random-route-48d14dc3-e584-4a73-9a11-68e25f0688ad-1189637186964144139-15-0.1" type="actor-car-7305225948339631608" depart="120.00" departLane="0" departPos="32.24" departSpeed="max" arrivalLane="1" arrivalPos="93.11">
        <route edges="edge1 edge0"/>
    </vehicle>
    <vehicle id="-flow-random-route-49b21cdd-534a-4721-b1a2-9169f4b01c50-1189637186964144139-14-0.1" type="actor-car-7305225948339631608" depart="120.00" departLane="2" departPos="116.06" departSpeed="max" arrivalLane="2" arrivalPos="636.59">
        <route edges="edge0 edge1"/>
    </vehicle>
    <vehicle id="-flow-random-route-4f78580e-eeec-4143-83ce-ac4184d91410-1189637186964144139-4-0.1" type="actor-car-7305225948339631608" depart="120.00" departLane="2" departPos="645.63" departSpeed="max" arrivalLane="2" arrivalPos="104.62">
        <route edges="edge1 edge0"/>
    </vehicle>
    <vehicle id="-flow-random-route-51d2a405-3803-4f81-855c-2a302747ac06-1189637186964144139-2-0.1" type="actor-car-7305225948339631608" depart="120.00" departLane="1" departPos="254.36" departSpeed="max" arrivalLane="0" arrivalPos="136.92">
        <route edges="edge1 edge0"/>
    </vehicle>
    <vehicle id="-flow-random-route-5d53d462-d6dd-461d-8873-7ef5a6ac2a41-1189637186964144139-7-0.1" type="actor-car-7305225948339631608" depart="120.00" departLane="0" departPos="131.70" departSpeed="max" arrivalLane="0" arrivalPos="114.84">
        <route edges="edge0 edge1"/>
    </vehicle>
    <vehicle id="-flow-random-route-6b64aba5-d70b-4a78-b85d-8ba570c02aa8-1189637186964144139-17-0.1" type="actor-car-7305225948339631608" depart="120.00" departLane="0" departPos="42.43" departSpeed="max" arrivalLane="0" arrivalPos="609.99">
        <route edges="edge0 edge1"/>
    </vehicle>
    <vehicle id="-flow-random-route-6dbf2c92-44ba-4a54-b9b2-b6c647c3690a-1189637186964144139-0-0.1" type="actor-car-7305225948339631608" depart="120.00" departLane="0" departPos="112.19" departSpeed="max" arrivalLane="1" arrivalPos="545.75">
        <route edges="edge0 edge1"/>
    </vehicle>
    <vehicle id="-flow-random-route-751e4f41-afb9-4dac-b2ee-0a200017712b-1189637186964144139-12-0.1" type="actor-car-7305225948339631608" depart="120.00" departLane="2" departPos="386.38" departSpeed="max" arrivalLane="2" arrivalPos="33.54">
        <route edges="edge1 edge0"/>
    </vehicle>
    <vehicle id="-flow-random-route-9d0a5ee9-02a1-443c-8bad-0fdbe6448814-1189637186964144139-13-0.1" type="actor-car-7305225948339631608" depart="120.00" departLane="1" departPos="61.11" departSpeed="max" arrivalLane="0" arrivalPos="147.17">
        <route edges="edge0 edge1"/>
    </vehicle>
    <vehicle id="-flow-random-route-9e946a73-bb33-4d76-96e2-ad56d0fedaa7-1189637186964144139-25-0.1" type="actor-car-7305225948339631608" depart="120.00" departLane="0" departPos="461.26" departSpeed="max" arrivalLane="1" arrivalPos="150.07">
        <route edges="edge1 edge0"/>
    </vehicle>
    <vehicle id="-flow-random-route-ace81ef5-b7fb-4176-baf4-18577ecedec8-1189637186964144139-27-0.1" type="actor-car-7305225948339631608" depart="120.00" departLane="1" departPos="308.16" departSpeed="max" arrivalLane="2" arrivalPos="32.55">
        <route edges="edge1 edge0"/>
    </vehicle>
    <vehicle id="-flow-random-route-b31c8518-9615-436b-89e9-860c54f973e5-1189637186964144139-10-0.1" type="actor-car-7305225948339631608" depart="120.00" departLane="0" departPos="352.51" departSpeed="max" arrivalLane="0" arrivalPos="85.49">
        <route edges="edge1 edge0"/>
    </vehicle>
    <vehicle id="-flow-random-route-bc77355e-8516-4505-ac77-f94bb9a69b2f-1189637186964144139-19-0.1" type="actor-car-7305225948339631608" depart="120.00" departLane="2" departPos="8.25" departSpeed="max" arrivalLane="2" arrivalPos="686.49">
        <route edges="edge0 edge1"/>
    </vehicle>
    <vehicle id="-flow-random-route-c7c60375-2bed-4aed-994d-14e26401302d-1189637186964144139-8-0.1" type="actor-car-7305225948339631608" depart="120.00" departLane="2" departPos="683.45" departSpeed="max" arrivalLane="0" arrivalPos="112.90">
        <route edges="edge1 edge0"/>
    </vehicle>
    <vehicle id="-flow-random-route-d0fcd6d5-14c5-4c67-80fa-f3396582c4e6-1189637186964144139-9-0.1" type="actor-car-7305225948339631608" depart="120.00" departLane="1" departPos="33.33" departSpeed="max" arrivalLane="2" arrivalPos="361.30">
        <route edges="edge0 edge1"/>
    </vehicle>
    <vehicle id="-flow-random-route-d1477619-a7f1-4731-b371-6817e8da5e4f-1189637186964144139-26-0.1" type="actor-car-7305225948339631608" depart="120.00" departLane="2" departPos="146.92" departSpeed="max" arrivalLane="1" arrivalPos="31.01">
        <route edges="edge1 edge0"/>
    </vehicle>
    <vehicle id="-flow-random-route-dcf52f79-2dc9-406d-b769-3ca65e18c1bb-1189637186964144139-21-0.1" type="actor-car-7305225948339631608" depart="120.00" departLane="2" departPos="278.60" departSpeed="max" arrivalLane="0" arrivalPos="151.91">
        <route edges="edge1 edge0"/>
    </vehicle>
    <vehicle id="-flow-random-route-dd5fea91-1c45-4a92-a4c7-32485611bceb-1189637186964144139-3-0.1" type="actor-car-7305225948339631608" depart="120.00" departLane="1" departPos="27.20" departSpeed="max" arrivalLane="1" arrivalPos="26.69">
        <route edges="edge0 edge1"/>
    </vehicle>
    <vehicle id="-flow-random-route-0b3e2164-90ef-492b-9b27-e7d6fe9b3e52-1189637186964144139-18-0.2" type="actor-car-7305225948339631608" depart="240.00" departLane="1" departPos="212.88" departSpeed="max" arrivalLane="0" arrivalPos="33.96">
        <route edges="edge1 edge0"/>
    </vehicle>
    <vehicle id="-flow-random-route-1581bad3-4174-4855-981f-d151a53dcd26-1189637186964144139-5-0.2" type="actor-car-7305225948339631608" depart="240.00" departLane="1" departPos="83.63" departSpeed="max" arrivalLane="2" arrivalPos="37.50">
        <route edges="edge1 edge0"/>
    </vehicle>
    <vehicle id="-flow-random-route-1622d347-25e4-4d9b-ab0d-63756654395d-1189637186964144139-1-0.2" type="actor-car-7305225948339631608" depart="240.00" departLane="1" departPos="106.20" departSpeed="max" arrivalLane="2" arrivalPos="88.79">
        <route edges="edge0 edge1"/>
    </vehicle>
    <vehicle id="-flow-random-route-167b73d1-e05d-4dec-a76b-70d275423fe2-1189637186964144139-11-0.2" type="actor-car-7305225948339631608" depart="240.00" departLane="0" departPos="88.22" departSpeed="max" arrivalLane="2" arrivalPos="42.52">
        <route edges="edge0 edge1"/>
    </vehicle>
    <vehicle id="-flow-random-route-1ed83e8f-3b65-4cc4-a00c-2082a06f4a33-1189637186964144139-20-0.2" type="actor-car-7305225948339631608" depart="240.00" departLane="2" departPos="142.67" departSpeed="max" arrivalLane="2" arrivalPos="49.81">
        <route edges="edge0 edge1"/>
    </vehicle>
    <vehicle id="-flow-random-route-24a0c31d-9e45-48a7-ad68-33332e18636f-1189637186964144139-29-0.2" type="actor-car-7305225948339631608" depart="240.00" departLane="2" departPos="151.73" departSpeed="max" arrivalLane="2" arrivalPos="175.37">
        <route edges="edge0 edge1"/>
    </vehicle>
    <vehicle id="-flow-random-route-298f9b5f-dc26-4578-ac92-b316c3ea2089-1189637186964144139-16-0.2" type="actor-car-7305225948339631608" depart="240.00" departLane="2" departPos="20.15" departSpeed="max" arrivalLane="2" arrivalPos="401.93">
        <route edges="edge0 edge1"/>
    </vehicle>
    <vehicle id="-flow-random-route-2b68f472-9b46-4562-9855-3b4580077aa4-1189637186964144139-24-0.2" type="actor-car-7305225948339631608" depart="240.00" departLane="2" departPos="98.32" departSpeed="max" arrivalLane="1" arrivalPos="220.55">
        <route edges="edge0 edge1"/>
    </vehicle>
    <vehicle id="-flow-random-route-2bacceda-47e3-4051-87e9-9536d12434e2-1189637186964144139-22-0.2" type="actor-car-7305225948339631608" depart="240.00" departLane="1" departPos="167.03" departSpeed="max" arrivalLane="0" arrivalPos="133.74">
        <route edges="edge1 edge0"/>
    </vehicle>
    <vehicle id="-flow-random-route-2be80d6e-233e-4459-b282-3287d30a1cdf-1189637186964144139-23-0.2" type="actor-car-7305225948339631608" depart="240.00" departLane="1" departPos="71.30" departSpeed="max" arrivalLane="1" arrivalPos="14.73">
        <route edges="edge1 edge0"/>
    </vehicle>
    <vehicle id="-flow-random-route-2e536a3e-ec5e-48ee-9280-040452932cad-1189637186964144139-6-0.2" type="actor-car-7305225948339631608" depart="240.00" departLane="2" departPos="115.04" departSpeed="max" arrivalLane="2" arrivalPos="140.31">
        <route edges="edge0 edge1"/>
    </vehicle>
    <vehicle id="-flow-random-route-41b30054-6fbd-48fe-bc3a-a39c9ac01d78-1189637186964144139-28-0.2" type="actor-car-7305225948339631608" depart="240.00" departLane="1" departPos="43.41" departSpeed="max" arrivalLane="1" arrivalPos="581.57">
        <route edges="edge0 edge1"/>
    </vehicle>
    <vehicle id="-flow-random-route-48d14dc3-e584-4a73-9a11-68e25f0688ad-1189637186964144139-15-0.2" type="actor-car-7305225948339631608" depart="240.00" departLane="0" departPos="32.24" departSpeed="max" arrivalLane="1" arrivalPos="93.11">
        <route edges="edge1 edge0"/>
    </vehicle>
    <vehicle id="-flow-random-route-49b21cdd-534a-4721-b1a2-9169f4b01c50-1189637186964144139-14-0.2" type="actor-car-7305225948339631608" depart="240.00" departLane="2" departPos="116.06" departSpeed="max" arrivalLane="2" arrivalPos="636.59">
        <route edges="edge0 edge1"/>
    </vehicle>
    <vehicle id="-flow-random-route-4f78580e-eeec-4143-83ce-ac4184d91410-1189637186964144139-4-0.2" type="actor-car-7305225948339631608" depart="240.00" departLane="2" departPos="645.63" departSpeed="max" arrivalLane="2" arrivalPos="104.62">
        <route edges="edge1 edge0"/>
    </vehicle>
    <vehicle id="-flow-random-route-51d2a405-3803-4f81-855c-2a302747ac06-1189637186964144139-2-0.2" type="actor-car-7305225948339631608" depart="240.00" departLane="1" departPos="254.36" departSpeed="max" arrivalLane="0" arrivalPos="136.92">
        <route edges="edge1 edge0"/>
    </vehicle>
    <vehicle id="-flow-random-route-5d53d462-d6dd-461d-8873-7ef5a6ac2a41-1189637186964144139-7-0.2" type="actor-car-7305225948339631608" depart="240.00" departLane="0" departPos="131.70" departSpeed="max" arrivalLane="0" arrivalPos="114.84">
        <route edges="edge0 edge1"/>
    </vehicle>
    <vehicle id="-flow-random-route-6b64aba5-d70b-4a78-b85d-8ba570c02aa8-1189637186964144139-17-0.2" type="actor-car-7305225948339631608" depart="240.00" departLane="0" departPos="42.43" departSpeed="max" arrivalLane="0" arrivalPos="609.99">
        <route edges="edge0 edge1"/>
    </vehicle>
    <vehicle id="-flow-random-route-6dbf2c92-44ba-4a54-b9b2-b6c647c3690a-1189637186964144139-0-0.2" type="actor-car-7305225948339631608" depart="240.00" departLane="0" departPos="112.19" departSpeed="max" arrivalLane="1" arrivalPos="545.75">
        <route edges="edge0 edge1"/>
    </vehicle>
    <vehicle id="-flow-random-route-751e4f41-afb9-4dac-b2ee-0a200017712b-1189637186964144139-12-0.2" type="actor-car-7305225948339631608" depart="240.00" departLane="2" departPos="386.38" departSpeed="max" arrivalLane="2" arrivalPos="33.54">
        <route edges="edge1 edge0"/>
    </vehicle>
    <vehicle id="-flow-random-route-9d0a5ee9-02a1-443c-8bad-0fdbe6448814-1189637186964144139-13-0.2" type="actor-car-7305225948339631608" depart="240.00" departLane="1" departPos="61.11" departSpeed="max" arrivalLane="0" arrivalPos="147.17">
        <route edges="edge0 edge1"/>
    </vehicle>
    <vehicle id="-flow-random-route-9e946a73-bb33-4d76-96e2-ad56d0fedaa7-1189637186964144139-25-0.2" type="actor-car-7305225948339631608" depart="240.00" departLane="0" departPos="461.26" departSpeed="max" arrivalLane="1" arrivalPos="150.07">
        <route edges="edge1 edge0"/>
    </vehicle>
    <vehicle id="-flow-random-route-ace81ef5-b7fb-4176-baf4-18577ecedec8-1189637186964144139-27-0.2" type="actor-car-7305225948339631608" depart="240.00" departLane="1" departPos="308.16" departSpeed="max" arrivalLane="2" arrivalPos="32.55">
        <route edges="edge1 edge0"/>
    </vehicle>
    <vehicle id="-flow-random-route-b31c8518-9615-436b-89e9-860c54f973e5-1189637186964144139-10-0.2" type="actor-car-7305225948339631608" depart="240.00" departLane="0" departPos="352.51" departSpeed="max" arrivalLane="0" arrivalPos="85.49">
        <route edges="edge1 edge0"/>
    </vehicle>
    <vehicle id="-flow-random-route-bc77355e-8516-4505-ac77-f94bb9a69b2f-1189637186964144139-19-0.2" type="actor-car-7305225948339631608" depart="240.00" departLane="2" departPos="8.25" departSpeed="max" arrivalLane="2" arrivalPos="686.49">
        <route edges="edge0 edge1"/>
    </vehicle>
    <vehicle id="-flow-random-route-c7c60375-2bed-4aed-994d-14e26401302d-1189637186964144139-8-0.2" type="actor-car-7305225948339631608" depart="240.00" departLane="2" departPos="683.45" departSpeed="max" arrivalLane="0" arrivalPos="112.90">
        <route edges="edge1 edge0"/>
    </vehicle>
    <vehicle id="-flow-random-route-d0fcd6d5-14c5-4c67-80fa-f3396582c4e6-1189637186964144139-9-0.2" type="actor-car-7305225948339631608" depart="240.00" departLane="1" departPos="33.33" departSpeed="max" arrivalLane="2" arrivalPos="361.30">
        <route edges="edge0 edge1"/>
    </vehicle>
    <vehicle id="-flow-random-route-d1477619-a7f1-4731-b371-6817e8da5e4f-1189637186964144139-26-0.2" type="actor-car-7305225948339631608" depart="240.00" departLane="2" departPos="146.92" departSpeed="max" arrivalLane="1" arrivalPos="31.01">
        <route edges="edge1 edge0"/>
    </vehicle>
    <vehicle id="-flow-random-route-dcf52f79-2dc9-406d-b769-3ca65e18c1bb-1189637186964144139-21-0.2" type="actor-car-7305225948339631608" depart="240.00" departLane="2" departPos="278.60" departSpeed="max" arrivalLane="0" arrivalPos="151.91">
        <route edges="edge1 edge0"/>
    </vehicle>
    <vehicle id="-flow-random-route-dd5fea91-1c45-4a92-a4c7-32485611bceb-1189637186964144139-3-0.2" type="actor-car-7305225948339631608" depart="240.00" departLane="1" departPos="27.20" departSpeed="max" arrivalLane="1" arrivalPos="26.69">
        <route edges="edge0 edge1"/>
    </vehicle>
    <vehicle id="-flow-random-route-0b3e2164-90ef-492b-9b27-e7d6fe9b3e52-1189637186964144139-18-0.3" type="actor-car-7305225948339631608" depart="360.00" departLane="1" departPos="212.88" departSpeed="max" arrivalLane="0" arrivalPos="33.96">
        <route edges="edge1 edge0"/>
    </vehicle>
    <vehicle id="-flow-random-route-1581bad3-4174-4855-981f-d151a53dcd26-1189637186964144139-5-0.3" type="actor-car-7305225948339631608" depart="360.00" departLane="1" departPos="83.63" departSpeed="max" arrivalLane="2" arrivalPos="37.50">
        <route edges="edge1 edge0"/>
    </vehicle>
    <vehicle id="-flow-random-route-1622d347-25e4-4d9b-ab0d-63756654395d-1189637186964144139-1-0.3" type="actor-car-7305225948339631608" depart="360.00" departLane="1" departPos="106.20" departSpeed="max" arrivalLane="2" arrivalPos="88.79">
        <route edges="edge0 edge1"/>
    </vehicle>
    <vehicle id="-flow-random-route-167b73d1-e05d-4dec-a76b-70d275423fe2-1189637186964144139-11-0.3" type="actor-car-7305225948339631608" depart="360.00" departLane="0" departPos="88.22" departSpeed="max" arrivalLane="2" arrivalPos="42.52">
        <route edges="edge0 edge1"/>
    </vehicle>
    <vehicle id="-flow-random-route-1ed83e8f-3b65-4cc4-a00c-2082a06f4a33-1189637186964144139-20-0.3" type="actor-car-7305225948339631608" depart="360.00" departLane="2" departPos="142.67" departSpeed="max" arrivalLane="2" arrivalPos="49.81">
        <route edges="edge0 edge1"/>
    </vehicle>
    <vehicle id="-flow-random-route-24a0c31d-9e45-48a7-ad68-33332e18636f-1189637186964144139-29-0.3" type="actor-car-7305225948339631608" depart="360.00" departLane="2" departPos="151.73" departSpeed="max" arrivalLane="2" arrivalPos="175.37">
        <route edges="edge0 edge1"/>
    </vehicle>
    <vehicle id="-flow-random-route-298f9b5f-dc26-4578-ac92-b316c3ea2089-1189637186964144139-16-0.3" type="actor-car-7305225948339631608" depart="360.00" departLane="2" departPos="20.15" departSpeed="max" arrivalLane="2" arrivalPos="401.93">
        <route edges="edge0 edge1"/>
    </vehicle>