<?xml version="1.0" encoding="UTF-8"?>

<!-- generated on Sat Sep  5 16:48:21 2020 by Eclipse SUMO duarouter Version 1.6.0
<configuration xmlns:xsi="http://www.w3.org/2001/XMLSchema-instance" xsi:noNamespaceSchemaLocation="http://sumo.dlr.de/xsd/duarouterConfiguration.xsd">

    <input>
        <net-file value="../dataset_public/merge_loop/merge_a/map.net.xml"/>
        <route-files value="/tmp/tmpmlr6zaag/trips.trips.xml"/>
    </input>

    <output>
        <output-file value="../dataset_public/merge_loop/merge_a/traffic/30_patient_car.rou.xml"/>
        <alternatives-output value="../dataset_public/merge_loop/merge_a/traffic/30_patient_car.rou.alt.xml"/>
    </output>

    <processing>
        <unsorted-input value="true"/>
        <repair value="true"/>
    </processing>

    <report>
        <error-log value="/tmp/smarts/_duarouter_routing/traffic/30_patient_car.log"/>
        <no-step-log value="true"/>
    </report>

    <random_number>
        <seed value="42"/>
    </random_number>

</configuration>
-->

<routes xmlns:xsi="http://www.w3.org/2001/XMLSchema-instance" xsi:noNamespaceSchemaLocation="http://sumo.dlr.de/xsd/routes_file.xsd">
    <vType id="actor-car--2437331598087843549" minGap="2.50" speedFactor="normc(0.50,0.20,0.20,2.00)" vClass="passenger" impatience="0.50" lcCooperative="0.5" lcImpatience="0" jmDriveAfterYellowTime="1.0" accel="2.6" decel="4.5" sigma="0.5"/>
    <vehicle id="-flow-random-route-097b1371-7103-4e5a-b053-a63c2bc74f93--3744554046898669407-16-0.0" type="actor-car--2437331598087843549" depart="0.00" departLane="1" departPos="41.46" departSpeed="max" arrivalLane="0" arrivalPos="12.18">
        <route edges="gneE5 gneE7 gneE7.117 gneE10 gneE3"/>
    </vehicle>
    <vehicle id="-flow-random-route-11230f27-3775-4605-bb9d-b27eae22ae0e--3744554046898669407-9-0.0" type="actor-car--2437331598087843549" depart="0.00" departLane="0" departPos="63.76" departSpeed="max" arrivalLane="1" arrivalPos="49.06">
        <route edges="gneE16 gneE7.117 gneE7.141 gneE8 gneE9 gneE2 gneE1 gneE1.12 gneE5 gneE7"/>
    </vehicle>
    <vehicle id="-flow-random-route-13a54274-afe2-43d8-b537-24c3c8f0cb0d--3744554046898669407-2-0.0" type="actor-car--2437331598087843549" depart="0.00" departLane="0" departPos="0.98" departSpeed="max" arrivalLane="0" arrivalPos="31.10">
        <route edges="gneE5 gneE7 gneE7.117 gneE7.141 gneE8 gneE9 gneE2 gneE1 gneE1.12 gneE5"/>
    </vehicle>
    <vehicle id="-flow-random-route-2312f2c4-ff03-482a-ba02-f99ce6e0d9df--3744554046898669407-21-0.0" type="actor-car--2437331598087843549" depart="0.00" departLane="0" departPos="110.65" departSpeed="max" arrivalLane="1" arrivalPos="10.24">
        <route edges="gneE8 gneE9 gneE2"/>
    </vehicle>
    <vehicle id="-flow-random-route-290f3a2b-6b2f-4973-a8e9-d45b74723a06--3744554046898669407-3-0.0" type="actor-car--2437331598087843549" depart="0.00" departLane="1" departPos="78.44" departSpeed="max" arrivalLane="0" arrivalPos="6.23">
        <route edges="gneE5 gneE7 gneE7.117 gneE7.141 gneE8 gneE9 gneE2 gneE1 gneE1.12 gneE5"/>
    </vehicle>
    <vehicle id="-flow-random-route-2d45212b-12e1-4818-80ff-d9abaf9186a7--3744554046898669407-23-0.0" type="actor-car--2437331598087843549" depart="0.00" departLane="1" departPos="86.24" departSpeed="max" arrivalLane="0" arrivalPos="123.11">
        <route edges="gneE1.12 gneE5 gneE7 gneE7.117 gneE7.141 gneE8 gneE9 gneE2 gneE1 gneE16"/>
    </vehicle>
    <vehicle id="-flow-random-route-2f01c342-dfe9-4961-9045-428da4eaae95--3744554046898669407-11-0.0" type="actor-car--2437331598087843549" depart="0.00" departLane="1" departPos="139.88" departSpeed="max" arrivalLane="0" arrivalPos="27.74">
        <route edges="gneE7.117 gneE10 gneE3"/>
    </vehicle>
    <vehicle id="-flow-random-route-4050b5ba-f47c-46a0-a288-9acc42e11447--3744554046898669407-27-0.0" type="actor-car--2437331598087843549" depart="0.00" departLane="1" departPos="101.44" departSpeed="max" arrivalLane="0" arrivalPos="32.83">
        <route edges="gneE1.12 gneE5 gneE7 gneE7.117 gneE7.141 gneE8 gneE9 gneE2 gneE1 gneE16"/>
    </vehicle>
    <vehicle id="-flow-random-route-56e5a825-0252-4c36-8e22-9022d776f4cd--3744554046898669407-26-0.0" type="actor-car--2437331598087843549" depart="0.00" departLane="1" departPos="32.90" departSpeed="max" arrivalLane="1" arrivalPos="94.52">
        <route edges="gneE1.12 gneE5 gneE7 gneE7.117 gneE10"/>
    </vehicle>
    <vehicle id="-flow-random-route-5db4f56c-21c6-48d8-8a62-7803ec1d5019--3744554046898669407-14-0.0" type="actor-car--2437331598087843549" depart="0.00" departLane="1" departPos="10.60" departSpeed="max" arrivalLane="1" arrivalPos="51.84">
        <route edges="gneE7.141 gneE8 gneE9 gneE2 gneE1 gneE1.12 gneE5 gneE7 gneE7.117 gneE10"/>
    </vehicle>
    <vehicle id="-flow-random-route-5ed9e9b0-f67f-450d-8f77-47950ebf4b40--3744554046898669407-5-0.0" type="actor-car--2437331598087843549" depart="0.00" departLane="1" departPos="75.70" departSpeed="max" arrivalLane="1" arrivalPos="20.39">
        <route edges="gneE9 gneE2 gneE1"/>
    </vehicle>
    <vehicle id="-flow-random-route-642cbe24-8ec8-4a93-85b3-e233d259dc10--3744554046898669407-8-0.0" type="actor-car--2437331598087843549" depart="0.00" departLane="0" departPos="127.37" departSpeed="max" arrivalLane="0" arrivalPos="60.15">
        <route edges="gneE16 gneE7.117 gneE10 gneE3 gneE1 gneE16 gneE7.117 gneE7.141 gneE8 gneE9"/>
    </vehicle>
    <vehicle id="-flow-random-route-6c41219d-fe52-4515-ba52-5f3ff87a5d25--3744554046898669407-24-0.0" type="actor-car--2437331598087843549" depart="0.00" departLane="0" departPos="52.27" departSpeed="max" arrivalLane="1" arrivalPos="28.92">
        <route edges="gneE5 gneE7 gneE7.117 gneE10 gneE3"/>
    </vehicle>
    <vehicle id="-flow-random-route-87b60de1-0a64-4462-9efa-5cc22aba20fa--3744554046898669407-4-0.0" type="actor-car--2437331598087843549" depart="0.00" departLane="0" departPos="80.76" departSpeed="max" arrivalLane="1" arrivalPos="8.62">
        <route edges="gneE9 gneE2 gneE1 gneE1.12 gneE5 gneE7 gneE7.117 gneE7.141 gneE8 gneE9"/>
    </vehicle>
    <vehicle id="-flow-random-route-89e09a10-2a9a-44fa-8002-f077e5e31b3e--3744554046898669407-0-0.0" type="actor-car--2437331598087843549" depart="0.00" departLane="1" departPos="57.92" departSpeed="max" arrivalLane="1" arrivalPos="35.13">
        <route edges="gneE7.117 gneE10 gneE3 gneE1 gneE16 gneE7.117 gneE7.141 gneE8 gneE9 gneE2"/>
    </vehicle>
    <vehicle id="-flow-random-route-91ee59c4-6469-49bd-a633-038ebec08e78--3744554046898669407-22-0.0" type="actor-car--2437331598087843549" depart="0.00" departLane="0" departPos="46.08" departSpeed="max" arrivalLane="1" arrivalPos="9.68">
        <route edges="gneE10 gneE3 gneE1"/>
    </vehicle>
    <vehicle id="-flow-random-route-9418b513-e459-46c3-95ef-9600fdb27516--3744554046898669407-20-0.0" type="actor-car--2437331598087843549" depart="0.00" departLane="0" departPos="22.38" departSpeed="max" arrivalLane="0" arrivalPos="75.84">
        <route edges="gneE7 gneE7.117 gneE10 gneE3 gneE1 gneE16 gneE7.117 gneE7.141 gneE8 gneE9"/>
    </vehicle>
    <vehicle id="-flow-random-route-946dfa22-dc61-4ac2-b728-42a2e01d489e--3744554046898669407-1-0.0" type="actor-car--2437331598087843549" depart="0.00" departLane="0" departPos="10.39" departSpeed="max" arrivalLane="0" arrivalPos="19.22">
        <route edges="gneE3 gneE1 gneE1.12 gneE5 gneE7 gneE7.117 gneE10 gneE3 gneE1 gneE16"/>
    </vehicle>
    <vehicle id="-flow-random-route-a4493472-8dcc-4061-8f53-a8f9368fcdd1--3744554046898669407-17-0.0" type="actor-car--2437331598087843549" depart="0.00" departLane="0" departPos="101.00" departSpeed="max" arrivalLane="1" arrivalPos="35.45">
        <route edges="gneE16 gneE7.117 gneE10 gneE3 gneE1"/>
    </vehicle>
    <vehicle id="-flow-random-route-aae4bf77-2b6b-4ec6-93f3-1ec5d6f475e4--3744554046898669407-18-0.0" type="actor-car--2437331598087843549" depart="0.00" departLane="0" departPos="54.68" departSpeed="max" arrivalLane="0" arrivalPos="45.78">
        <route edges="gneE7.141 gneE8 gneE9 gneE2 gneE1 gneE1.12 gneE5 gneE7 gneE7.117 gneE10"/>
    </vehicle>
    <vehicle id="-flow-random-route-b0cd6c68-60b3-4d50-b75e-91c08259557f--3744554046898669407-10-0.0" type="actor-car--2437331598087843549" depart="0.00" departLane="0" departPos="152.32" departSpeed="max" arrivalLane="1" arrivalPos="31.01">
        <route edges="gneE8 gneE9 gneE2 gneE1 gneE1.12 gneE5 gneE7 gneE7.117 gneE7.141 gneE8"/>
    </vehicle>
    <vehicle id="-flow-random-route-b102e703-6812-4860-a433-933add017071--3744554046898669407-15-0.0" type="actor-car--2437331598087843549" depart="0.00" departLane="1" departPos="51.03" departSpeed="max" arrivalLane="1" arrivalPos="9.22">
        <route edges="gneE9 gneE2 gneE1"/>
    </vehicle>
    <vehicle id="-flow-random-route-b3a19313-99fa-4235-a964-4a795be9f092--3744554046898669407-6-0.0" type="actor-car--2437331598087843549" depart="0.00" departLane="0" departPos="28.73" departSpeed="max" arrivalLane="1" arrivalPos="79.57">
        <route edges="gneE16 gneE7.117 gneE10"/>
    </vehicle>
    <vehicle id="-flow-random-route-b4378355-ce65-44bc-97b8-cbd81abefec3--3744554046898669407-25-0.0" type="actor-car--2437331598087843549" depart="0.00" departLane="0" departPos="63.04" departSpeed="max" arrivalLane="0" arrivalPos="19.94">
        <route edges="gneE7.141 gneE8 gneE9 gneE2 gneE1 gneE1.12 gneE5 gneE7 gneE7.117 gneE10"/>
    </vehicle>
    <vehicle id="-flow-random-route-cc1e24dc-894f-42b2-822e-8c139b3307aa--3744554046898669407-28-0.0" type="actor-car--2437331598087843549" depart="0.00" departLane="1" departPos="8.63" departSpeed="max" arrivalLane="0" arrivalPos="29.86">
        <route edges="gneE1 gneE1.12 gneE5 gneE7 gneE7.117 gneE7.141 gneE8 gneE9 gneE2 gneE1"/>
    </vehicle>
    <vehicle id="-flow-random-route-d08e1c20-6411-4329-96dc-ebb686cb0a18--3744554046898669407-12-0.0" type="actor-car--2437331598087843549" depart="0.00" departLane="0" departPos="44.91" departSpeed="max" arrivalLane="0" arrivalPos="71.29">
        <route edges="gneE2 gneE1 gneE16"/>
    </vehicle>
    <vehicle id="-flow-random-route-e257d842-66c6-44b2-87b8-f906a793919c--3744554046898669407-29-0.0" type="actor-car--2437331598087843549" depart="0.00" departLane="0" departPos="3.52" departSpeed="max" arrivalLane="0" arrivalPos="170.89">
        <route edges="gneE7.117 gneE7.141 gneE8"/>
    </vehicle>
    <vehicle id="-flow-random-route-ede4a3ac-dc97-4426-ad1c-9140fc07f1e5--3744554046898669407-7-0.0" type="actor-car--2437331598087843549" depart="0.00" departLane="0" departPos="25.80" departSpeed="max" arrivalLane="0" arrivalPos="131.61">
        <route edges="gneE5 gneE7 gneE7.117 gneE7.141 gneE8 gneE9 gneE2 gneE1 gneE1.12 gneE5"/>
    </vehicle>
    <vehicle id="-flow-random-route-f0032c43-9813-4381-a16a-d22eb3fd8a3e--3744554046898669407-19-0.0" type="actor-car--2437331598087843549" depart="0.00" departLane="0" departPos="32.02" departSpeed="max" arrivalLane="0" arrivalPos="63.63">
        <route edges="gneE2 gneE1 gneE16 gneE7.117 gneE10"/>
    </vehicle>
    <vehicle id="-flow-random-route-fe3db8bb-0ed1-4853-b1ca-3271e4682efb--3744554046898669407-13-0.0" type="actor-car--2437331598087843549" depart="0.00" departLane="0" departPos="142.73" departSpeed="max" arrivalLane="1" arrivalPos="25.42">
        <route edges="gneE8 gneE9 gneE2"/>
    </vehicle>
    <vehicle id="-flow-random-route-097b1371-7103-4e5a-b053-a63c2bc74f93--3744554046898669407-16-0.1" type="actor-car--2437331598087843549" depart="120.00" departLane="1" departPos="41.46" departSpeed="max" arrivalLane="0" arrivalPos="12.18">
        <route edges="gneE5 gneE7 gneE7.117 gneE10 gneE3"/>
    </vehicle>
    <vehicle id="-flow-random-route-11230f27-3775-4605-bb9d-b27eae22ae0e--3744554046898669407-9-0.1" type="actor-car--2437331598087843549" depart="120.00" departLane="0" departPos="63.76" departSpeed="max" arrivalLane="1" arrivalPos="49.06">
        <route edges="gneE16 gneE7.117 gneE7.141 gneE8 gneE9 gneE2 gneE1 gneE1.12 gneE5 gneE7"/>
    </vehicle>
    <vehicle id="-flow-random-route-13a54274-afe2-43d8-b537-24c3c8f0cb0d--3744554046898669407-2-0.1" type="actor-car--2437331598087843549" depart="120.00" departLane="0" departPos="0.98" departSpeed="max" arrivalLane="0" arrivalPos="31.10">
        <route edges="gneE5 gneE7 gneE7.117 gneE7.141 gneE8 gneE9 gneE2 gneE1 gneE1.12 gneE5"/>
    </vehicle>
    <vehicle id="-flow-random-route-2312f2c4-ff03-482a-ba02-f99ce6e0d9df--3744554046898669407-21-0.1" type="actor-car--2437331598087843549" depart="120.00" departLane="0" departPos="110.65" departSpeed="max" arrivalLane="1" arrivalPos="10.24">
        <route edges="gneE8 gneE9 gneE2"/>
    </vehicle>
    <vehicle id="-flow-random-route-290f3a2b-6b2f-4973-a8e9-d45b74723a06--3744554046898669407-3-0.1" type="actor-car--2437331598087843549" depart="120.00" departLane="1" departPos="78.44" departSpeed="max" arrivalLane="0" arrivalPos="6.23">
        <route edges="gneE5 gneE7 gneE7.117 gneE7.141 gneE8 gneE9 gneE2 gneE1 gneE1.12 gneE5"/>
    </vehicle>
    <vehicle id="-flow-random-route-2d45212b-12e1-4818-80ff-d9abaf9186a7--3744554046898669407-23-0.1" type="actor-car--2437331598087843549" depart="120.00" departLane="1" departPos="86.24" departSpeed="max" arrivalLane="0" arrivalPos="123.11">
        <route edges="gneE1.12 gneE5 gneE7 gneE7.117 gneE7.141 gneE8 gneE9 gneE2 gneE1 gneE16"/>
    </vehicle>
    <vehicle id="-flow-random-route-2f01c342-dfe9-4961-9045-428da4eaae95--3744554046898669407-11-0.1" type="actor-car--2437331598087843549" depart="120.00" departLane="1" departPos="139.88" departSpeed="max" arrivalLane="0" arrivalPos="27.74">
        <route edges="gneE7.117 gneE10 gneE3"/>
    </vehicle>
    <vehicle id="-flow-random-route-4050b5ba-f47c-46a0-a288-9acc42e11447--3744554046898669407-27-0.1" type="actor-car--2437331598087843549" depart="120.00" departLane="1" departPos="101.44" departSpeed="max" arrivalLane="0" arrivalPos="32.83">
        <route edges="gneE1.12 gneE5 gneE7 gneE7.117 gneE7.141 gneE8 gneE9 gneE2 gneE1 gneE16"/>
    </vehicle>
    <vehicle id="-flow-random-route-56e5a825-0252-4c36-8e22-9022d776f4cd--3744554046898669407-26-0.1" type="actor-car--2437331598087843549" depart="120.00" departLane="1" departPos="32.90" departSpeed="max" arrivalLane="1" arrivalPos="94.52">
        <route edges="gneE1.12 gneE5 gneE7 gneE7.117 gneE10"/>
    </vehicle>
    <vehicle id="-flow-random-route-5db4f56c-21c6-48d8-8a62-7803ec1d5019--3744554046898669407-14-0.1" type="actor-car--2437331598087843549" depart="120.00" departLane="1" departPos="10.60" departSpeed="max" arrivalLane="1" arrivalPos="51.84">
        <route edges="gneE7.141 gneE8 gneE9 gneE2 gneE1 gneE1.12 gneE5 gneE7 gneE7.117 gneE10"/>
    </vehicle>
    <vehicle id="-flow-random-route-5ed9e9b0-f67f-450d-8f77-47950ebf4b40--3744554046898669407-5-0.1" type="actor-car--2437331598087843549" depart="120.00" departLane="1" departPos="75.70" departSpeed="max" arrivalLane="1" arrivalPos="20.39">
        <route edges="gneE9 gneE2 gneE1"/>
    </vehicle>
    <vehicle id="-flow-random-route-642cbe24-8ec8-4a93-85b3-e233d259dc10--3744554046898669407-8-0.1" type="actor-car--2437331598087843549" depart="120.00" departLane="0" departPos="127.37" departSpeed="max" arrivalLane="0" arrivalPos="60.15">
        <route edges="gneE16 gneE7.117 gneE10 gneE3 gneE1 gneE16 gneE7.117 gneE7.141 gneE8 gneE9"/>
    </vehicle>
    <vehicle id="-flow-random-route-6c41219d-fe52-4515-ba52-5f3ff87a5d25--3744554046898669407-24-0.1" type="actor-car--2437331598087843549" depart="120.00" departLane="0" departPos="52.27" departSpeed="max" arrivalLane="1" arrivalPos="28.92">
        <route edges="gneE5 gneE7 gneE7.117 gneE10 gneE3"/>
    </vehicle>
    <vehicle id="-flow-random-route-87b60de1-0a64-4462-9efa-5cc22aba20fa--3744554046898669407-4-0.1" type="actor-car--2437331598087843549" depart="120.00" departLane="0" departPos="80.76" departSpeed="max" arrivalLane="1" arrivalPos="8.62">
        <route edges="gneE9 gneE2 gneE1 gneE1.12 gneE5 gneE7 gneE7.117 gneE7.141 gneE8 gneE9"/>
    </vehicle>
    <vehicle id="-flow-random-route-89e09a10-2a9a-44fa-8002-f077e5e31b3e--3744554046898669407-0-0.1" type="actor-car--2437331598087843549" depart="120.00" departLane="1" departPos="57.92" departSpeed="max" arrivalLane="1" arrivalPos="35.13">
        <route edges="gneE7.117 gneE10 gneE3 gneE1 gneE16 gneE7.117 gneE7.141 gneE8 gneE9 gneE2"/>
    </vehicle>
    <vehicle id="-flow-random-route-91ee59c4-6469-49bd-a633-038ebec08e78--3744554046898669407-22-0.1" type="actor-car--2437331598087843549" depart="120.00" departLane="0" departPos="46.08" departSpeed="max" arrivalLane="1" arrivalPos="9.68">
        <route edges="gneE10 gneE3 gneE1"/>
    </vehicle>
    <vehicle id="-flow-random-route-9418b513-e459-46c3-95ef-9600fdb27516--3744554046898669407-20-0.1" type="actor-car--2437331598087843549" depart="120.00" departLane="0" departPos="22.38" departSpeed="max" arrivalLane="0" arrivalPos="75.84">
        <route edges="gneE7 gneE7.117 gneE10 gneE3 gneE1 gneE16 gneE7.117 gneE7.141 gneE8 gneE9"/>
    </vehicle>
    <vehicle id="-flow-random-route-946dfa22-dc61-4ac2-b728-42a2e01d489e--3744554046898669407-1-0.1" type="actor-car--2437331598087843549" depart="120.00" departLane="0" departPos="10.39" departSpeed="max" arrivalLane="0" arrivalPos="19.22">
        <route edges="gneE3 gneE1 gneE1.12 gneE5 gneE7 gneE7.117 gneE10 gneE3 gneE1 gneE16"/>
    </vehicle>
    <vehicle id="-flow-random-route-a4493472-8dcc-4061-8f53-a8f9368fcdd1--3744554046898669407-17-0.1" type="actor-car--2437331598087843549" depart="120.00" departLane="0" departPos="101.00" departSpeed="max" arrivalLane="1" arrivalPos="35.45">
        <route edges="gneE16 gneE7.117 gneE10 gneE3 gneE1"/>
    </vehicle>
    <vehicle id="-flow-random-route-aae4bf77-2b6b-4ec6-93f3-1ec5d6f475e4--3744554046898669407-18-0.1" type="actor-car--2437331598087843549" depart="120.00" departLane="0" departPos="54.68" departSpeed="max" arrivalLane="0" arrivalPos="45.78">
        <route edges="gneE7.141 gneE8 gneE9 gneE2 gneE1 gneE1.12 gneE5 gneE7 gneE7.117 gneE10"/>
    </vehicle>
    <vehicle id="-flow-random-route-b0cd6c68-60b3-4d50-b75e-91c08259557f--3744554046898669407-10-0.1" type="actor-car--2437331598087843549" depart="120.00" departLane="0" departPos="152.32" departSpeed="max" arrivalLane="1" arrivalPos="31.01">
        <route edges="gneE8 gneE9 gneE2 gneE1 gneE1.12 gneE5 gneE7 gneE7.117 gneE7.141 gneE8"/>
    </vehicle>
    <vehicle id="-flow-random-route-b102e703-6812-4860-a433-933add017071--3744554046898669407-15-0.1" type="actor-car--2437331598087843549" depart="120.00" departLane="1" departPos="51.03" departSpeed="max" arrivalLane="1" arrivalPos="9.22">
        <route edges="gneE9 gneE2 gneE1"/>
    </vehicle>
    <vehicle id="-flow-random-route-b3a19313-99fa-4235-a964-4a795be9f092--3744554046898669407-6-0.1" type="actor-car--2437331598087843549" depart="120.00" departLane="0" departPos="28.73" departSpeed="max" arrivalLane="1" arrivalPos="79.57">
        <route edges="gneE16 gneE7.117 gneE10"/>
    </vehicle>
    <vehicle id="-flow-random-route-b4378355-ce65-44bc-97b8-cbd81abefec3--3744554046898669407-25-0.1" type="actor-car--2437331598087843549" depart="120.00" departLane="0" departPos="63.04" departSpeed="max" arrivalLane="0" arrivalPos="19.94">
        <route edges="gneE7.141 gneE8 gneE9 gneE2 gneE1 gneE1.12 gneE5 gneE7 gneE7.117 gneE10"/>
    </vehicle>
    <vehicle id="-flow-random-route-cc1e24dc-894f-42b2-822e-8c139b3307aa--3744554046898669407-28-0.1" type="actor-car--2437331598087843549" depart="120.00" departLane="1" departPos="8.63" departSpeed="max" arrivalLane="0" arrivalPos="29.86">
        <route edges="gneE1 gneE1.12 gneE5 gneE7 gneE7.117 gneE7.141 gneE8 gneE9 gneE2 gneE1"/>
    </vehicle>
    <vehicle id="-flow-random-route-d08e1c20-6411-4329-96dc-ebb686cb0a18--3744554046898669407-12-0.1" type="actor-car--2437331598087843549" depart="120.00" departLane="0" departPos="44.91" departSpeed="max" arrivalLane="0" arrivalPos="71.29">
        <route edges="gneE2 gneE1 gneE16"/>
    </vehicle>
    <vehicle id="-flow-random-route-e257d842-66c6-44b2-87b8-f906a793919c--3744554046898669407-29-0.1" type="actor-car--2437331598087843549" depart="120.00" departLane="0" departPos="3.52" departSpeed="max" arrivalLane="0" arrivalPos="170.89">
        <route edges="gneE7.117 gneE7.141 gneE8"/>
    </vehicle>
    <vehicle id="-flow-random-route-ede4a3ac-dc97-4426-ad1c-9140fc07f1e5--3744554046898669407-7-0.1" type="actor-car--2437331598087843549" depart="120.00" departLane="0" departPos="25.80" departSpeed="max" arrivalLane="0" arrivalPos="131.61">
        <route edges="gneE5 gneE7 gneE7.117 gneE7.141 gneE8 gneE9 gneE2 gneE1 gneE1.12 gneE5"/>
    </vehicle>
    <vehicle id="-flow-random-route-f0032c43-9813-4381-a16a-d22eb3fd8a3e--3744554046898669407-19-0.1" type="actor-car--2437331598087843549" depart="120.00" departLane="0" departPos="32.02" departSpeed="max" arrivalLane="0" arrivalPos="63.63">
        <route edges="gneE2 gneE1 gneE16 gneE7.117 gneE10"/>
    </vehicle>
    <vehicle id="-flow-random-route-fe3db8bb-0ed1-4853-b1ca-3271e4682efb--3744554046898669407-13-0.1" type="actor-car--2437331598087843549" depart="120.00" departLane="0" departPos="142.73" departSpeed="max" arrivalLane="1" arrivalPos="25.42">
        <route edges="gneE8 gneE9 gneE2"/>
    </vehicle>
    <vehicle id="-flow-random-route-097b1371-7103-4e5a-b053-a63c2bc74f93--3744554046898669407-16-0.2" type="actor-car--2437331598087843549" depart="240.00" departLane="1" departPos="41.46" departSpeed="max" arrivalLane="0" arrivalPos="12.18">
        <route edges="gneE5 gneE7 gneE7.117 gneE10 gneE3"/>
    </vehicle>
    <vehicle id="-flow-random-route-11230f27-3775-4605-bb9d-b27eae22ae0e--3744554046898669407-9-0.2" type="actor-car--2437331598087843549" depart="240.00" departLane="0" departPos="63.76" departSpeed="max" arrivalLane="1" arrivalPos="49.06">
        <route edges="gneE16 gneE7.117 gneE7.141 gneE8 gneE9 gneE2 gneE1 gneE1.12 gneE5 gneE7"/>
    </vehicle>
    <vehicle id="-flow-random-route-13a54274-afe2-43d8-b537-24c3c8f0cb0d--3744554046898669407-2-0.2" type="actor-car--2437331598087843549" depart="240.00" departLane="0" departPos="0.98" departSpeed="max" arrivalLane="0" arrivalPos="31.10">
        <route edges="gneE5 gneE7 gneE7.117 gneE7.141 gneE8 gneE9 gneE2 gneE1 gneE1.12 gneE5"/>
    </vehicle>
    <vehicle id="-flow-random-route-2312f2c4-ff03-482a-ba02-f99ce6e0d9df--3744554046898669407-21-0.2" type="actor-car--2437331598087843549" depart="240.00" departLane="0" departPos="110.65" departSpeed="max" arrivalLane="1" arrivalPos="10.24">
        <route edges="gneE8 gneE9 gneE2"/>
    </vehicle>
    <vehicle id="-flow-random-route-290f3a2b-6b2f-4973-a8e9-d45b74723a06--3744554046898669407-3-0.2" type="actor-car--2437331598087843549" depart="240.00" departLane="1" departPos="78.44" departSpeed="max" arrivalLane="0" arrivalPos="6.23">
        <route edges="gneE5 gneE7 gneE7.117 gneE7.141 gneE8 gneE9 gneE2 gneE1 gneE1.12 gneE5"/>
    </vehicle>
    <vehicle id="-flow-random-route-2d45212b-12e1-4818-80ff-d9abaf9186a7--3744554046898669407-23-0.2" type="actor-car--2437331598087843549" depart="240.00" departLane="1" departPos="86.24" departSpeed="max" arrivalLane="0" arrivalPos="123.11">
        <route edges="gneE1.12 gneE5 gneE7 gneE7.117 gneE7.141 gneE8 gneE9 gneE2 gneE1 gneE16"/>
    </vehicle>
    <vehicle id="-flow-random-route-2f01c342-dfe9-4961-9045-428da4eaae95--3744554046898669407-11-0.2" type="actor-car--2437331598087843549" depart="240.00" departLane="1" departPos="139.88" departSpeed="max" arrivalLane="0" arrivalPos="27.74">
        <route edges="gneE7.117 gneE10 gneE3"/>
    </vehicle>
    <vehicle id="-flow-random-route-4050b5ba-f47c-46a0-a288-9acc42e11447--3744554046898669407-27-0.2" type="actor-car--2437331598087843549" depart="240.00" departLane="1" departPos="101.44" departSpeed="max" arrivalLane="0" arrivalPos="32.83">
        <route edges="gneE1.12 gneE5 gneE7 gneE7.117 gneE7.141 gneE8 gneE9 gneE2 gneE1 gneE16"/>
    </vehicle>
    <vehicle id="-flow-random-route-56e5a825-0252-4c36-8e22-9022d776f4cd--3744554046898669407-26-0.2" type="actor-car--2437331598087843549" depart="240.00" departLane="1" departPos="32.90" departSpeed="max" arrivalLane="1" arrivalPos="94.52">
        <route edges="gneE1.12 gneE5 gneE7 gneE7.117 gneE10"/>
    </vehicle>
    <vehicle id="-flow-random-route-5db4f56c-21c6-48d8-8a62-7803ec1d5019--3744554046898669407-14-0.2" type="actor-car--2437331598087843549" depart="240.00" departLane="1" departPos="10.60" departSpeed="max" arrivalLane="1" arrivalPos="51.84">
        <route edges="gneE7.141 gneE8 gneE9 gneE2 gneE1 gneE1.12 gneE5 gneE7 gneE7.117 gneE10"/>
    </vehicle>
    <vehicle id="-flow-random-route-5ed9e9b0-f67f-450d-8f77-47950ebf4b40--3744554046898669407-5-0.2" type="actor-car--2437331598087843549" depart="240.00" departLane="1" departPos="75.70" departSpeed="max" arrivalLane="1" arrivalPos="20.39">
        <route edges="gneE9 gneE2 gneE1"/>
    </vehicle>
    <vehicle id="-flow-random-route-642cbe24-8ec8-4a93-85b3-e233d259dc10--3744554046898669407-8-0.2" type="actor-car--2437331598087843549" depart="240.00" departLane="0" departPos="127.37" departSpeed="max" arrivalLane="0" arrivalPos="60.15">
        <route edges="gneE16 gneE7.117 gneE10 gneE3 gneE1 gneE16 gneE7.117 gneE7.141 gneE8 gneE9"/>
    </vehicle>
    <vehicle id="-flow-random-route-6c41219d-fe52-4515-ba52-5f3ff87a5d25--3744554046898669407-24-0.2" type="actor-car--2437331598087843549" depart="240.00" departLane="0" departPos="52.27" departSpeed="max" arrivalLane="1" arrivalPos="28.92">
        <route edges="gneE5 gneE7 gneE7.117 gneE10 gneE3"/>
    </vehicle>
    <vehicle id="-flow-random-route-87b60de1-0a64-4462-9efa-5cc22aba20fa--3744554046898669407-4-0.2" type="actor-car--2437331598087843549" depart="240.00" departLane="0" departPos="80.76" departSpeed="max" arrivalLane="1" arrivalPos="8.62">
        <route edges="gneE9 gneE2 gneE1 gneE1.12 gneE5 gneE7 gneE7.117 gneE7.141 gneE8 gneE9"/>
    </vehicle>
    <vehicle id="-flow-random-route-89e09a10-2a9a-44fa-8002-f077e5e31b3e--3744554046898669407-0-0.2" type="actor-car--2437331598087843549" depart="240.00" departLane="1" departPos="57.92" departSpeed="max" arrivalLane="1" arrivalPos="35.13">
        <route edges="gneE7.117 gneE10 gneE3 gneE1 gneE16 gneE7.117 gneE7.141 gneE8 gneE9 gneE2"/>
    </vehicle>
    <vehicle id="-flow-random-route-91ee59c4-6469-49bd-a633-038ebec08e78--3744554046898669407-22-0.2" type="actor-car--2437331598087843549" depart="240.00" departLane="0" departPos="46.08" departSpeed="max" arrivalLane="1" arrivalPos="9.68">
        <route edges="gneE10 gneE3 gneE1"/>
    </vehicle>
    <vehicle id="-flow-random-route-9418b513-e459-46c3-95ef-9600fdb27516--3744554046898669407-20-0.2" type="actor-car--2437331598087843549" depart="240.00" departLane="0" departPos="22.38" departSpeed="max" arrivalLane="0" arrivalPos="75.84">
        <route edges="gneE7 gneE7.117 gneE10 gneE3 gneE1 gneE16 gneE7.117 gneE7.141 gneE8 gneE9"/>
    </vehicle>
    <vehicle id="-flow-random-route-946dfa22-dc61-4ac2-b728-42a2e01d489e--3744554046898669407-1-0.2" type="actor-car--2437331598087843549" depart="240.00" departLane="0" departPos="10.39" departSpeed="max" arrivalLane="0" arrivalPos="19.22">
        <route edges="gneE3 gneE1 gneE1.12 gneE5 gneE7 gneE7.117 gneE10 gneE3 gneE1 gneE16"/>
    </vehicle>
    <vehicle id="-flow-random-route-a4493472-8dcc-4061-8f53-a8f9368fcdd1--3744554046898669407-17-0.2" type="actor-car--2437331598087843549" depart="240.00" departLane="0" departPos="101.00" departSpeed="max" arrivalLane="1" arrivalPos="35.45">
        <route edges="gneE16 gneE7.117 gneE10 gneE3 gneE1"/>
    </vehicle>
    <vehicle id="-flow-random-route-aae4bf77-2b6b-4ec6-93f3-1ec5d6f475e4--3744554046898669407-18-0.2" type="actor-car--2437331598087843549" depart="240.00" departLane="0" departPos="54.68" departSpeed="max" arrivalLane="0" arrivalPos="45.78">
        <route edges="gneE7.141 gneE8 gneE9 gneE2 gneE1 gneE1.12 gneE5 gneE7 gneE7.117 gneE10"/>
    </vehicle>
    <vehicle id="-flow-random-route-b0cd6c68-60b3-4d50-b75e-91c08259557f--3744554046898669407-10-0.2" type="actor-car--2437331598087843549" depart="240.00" departLane="0" departPos="152.32" departSpeed="max" arrivalLane="1" arrivalPos="31.01">
        <route edges="gneE8 gneE9 gneE2 gneE1 gneE1.12 gneE5 gneE7 gneE7.117 gneE7.141 gneE8"/>
    </vehicle>
    <vehicle id="-flow-random-route-b102e703-6812-4860-a433-933add017071--3744554046898669407-15-0.2" type="actor-car--2437331598087843549" depart="240.00" departLane="1" departPos="51.03" departSpeed="max" arrivalLane="1" arrivalPos="9.22">
        <route edges="gneE9 gneE2 gneE1"/>
    </vehicle>
    <vehicle id="-flow-random-route-b3a19313-99fa-4235-a964-4a795be9f092--3744554046898669407-6-0.2" type="actor-car--2437331598087843549" depart="240.00" departLane="0" departPos="28.73" departSpeed="max" arrivalLane="1" arrivalPos="79.57">
        <route edges="gneE16 gneE7.117 gneE10"/>
    </vehicle>
    <vehicle id="-flow-random-route-b4378355-ce65-44bc-97b8-cbd81abefec3--3744554046898669407-25-0.2" type="actor-car--2437331598087843549" depart="240.00" departLane="0" departPos="63.04" departSpeed="max" arrivalLane="0" arrivalPos="19.94">
        <route edges="gneE7.141 gneE8 gneE9 gneE2 gneE1 gneE1.12 gneE5 gneE7 gneE7.117 gneE10"/>
    </vehicle>
    <vehicle id="-flow-random-route-cc1e24dc-894f-42b2-822e-8c139b3307aa--3744554046898669407-28-0.2" type="actor-car--2437331598087843549" depart="240.00" departLane="1" departPos="8.63" departSpeed="max" arrivalLane="0" arrivalPos="29.86">
        <route edges="gneE1 gneE1.12 gneE5 gneE7 gneE7.117 gneE7.141 gneE8 gneE9 gneE2 gneE1"/>
    </vehicle>
    <vehicle id="-flow-random-route-d08e1c20-6411-4329-96dc-ebb686cb0a18--3744554046898669407-12-0.2" type="actor-car--2437331598087843549" depart="240.00" departLane="0" departPos="44.91" departSpeed="max" arrivalLane="0" arrivalPos="71.29">